/*---------------------------------------------------------------------------*\
  =========                 |
  \\      /  F ield         | OpenFOAM: The Open Source CFD Toolbox
   \\    /   O peration     | Website:  https://openfoam.org
    \\  /    A nd           | Version:  8
     \\/     M anipulation  |
\*---------------------------------------------------------------------------*/
/*   Windows 32 and 64 bit porting by blueCAPE: http://www.bluecape.com.pt   *\
|  Based on Windows porting (2.0.x v4) by Symscape: http://www.symscape.com   |
\*---------------------------------------------------------------------------*/
Build  : 8-53cd1468e263
Exec   : C:/PROGRA~1/BLUECF~1/OpenFOAM-8/platforms/mingw_w64GccDPInt32Opt/bin/changeDictionary.exe -region air
Date   : Nov 10 2025
Time   : 14:55:10
Host   : "CIPHER-6869"
PID    : 7948
I/O    : uncollated
Case   : C:/MetaFoam_Cases/terrain_test_03
nProcs : 1
SigFpe : Enabling floating point exception trapping (FOAM_SIGFPE).
fileModificationChecking : Monitoring run-time modified files using timeStampMaster (fileModificationSkew 10)
allowSystemOperations : Allowing user-supplied system call operations

// * * * * * * * * * * * * * * * * * * * * * * * * * * * * * * * * * * * * * //
--> FOAM Warning : 
changeDictionary has been superseded by foamDictionary and is now deprecated.

Create time

Create mesh air for time = 0

Read dictionary changeDictionaryDict with replacements for dictionaries 1(boundary)
Reading polyMesh/boundary file to extract patch names
Loaded dictionary boundary with entries 
7
(
left
right
back
front
terrain
top
buildings
)

Extracted patch groups:
    group wall with patches 
2
(
terrain
buildings
)

Replacing entries in dictionary boundary
Special handling of boundary as polyMesh/boundary file.
Merging entries from 
2
(
terrain
buildings
)

fieldDict:
{
    left
    {
        type            patch;
        nFaces          36;
        startFace       201191;
    }
    right
    {
        type            patch;
        nFaces          36;
        startFace       201227;
    }
    back
    {
        type            patch;
        nFaces          44;
        startFace       201263;
    }
    front
    {
        type            patch;
        nFaces          44;
        startFace       201307;
    }
    terrain
    {
        type            mappedWall;
        inGroups        List<word> 0();
        nFaces          3402;
        startFace       201351;
        sampleMode      nearestPatchFace;
        sampleRegion    terrain;
        samplePatch     terrrain_to_air;
        offsetMode      uniform;
        offset          ( 0 0 0 );
    }
    top
    {
        type            patch;
        nFaces          99;
        startFace       204753;
    }
    buildings
    {
        type            mappedWall;
        inGroups        List<word> 0();
        nFaces          8629;
        startFace       204852;
        sampleMode      nearestPatchFace;
        sampleRegion    buildings;
        samplePatch     buildings_to_air;
        offsetMode      uniform;
        offset          ( 0 0 0 );
    }
}

Writing modified boundary

End

