/*---------------------------------------------------------------------------*\
  =========                 |
  \\      /  F ield         | OpenFOAM: The Open Source CFD Toolbox
   \\    /   O peration     | Website:  https://openfoam.org
    \\  /    A nd           | Version:  8
     \\/     M anipulation  |
\*---------------------------------------------------------------------------*/
/*   Windows 32 and 64 bit porting by blueCAPE: http://www.bluecape.com.pt   *\
|  Based on Windows porting (2.0.x v4) by Symscape: http://www.symscape.com   |
\*---------------------------------------------------------------------------*/
Build  : 8-53cd1468e263
Exec   : C:/PROGRA~1/BLUECF~1/OpenFOAM-8/platforms/mingw_w64GccDPInt32Opt/bin/snappyHexMesh.exe -overwrite
Date   : Nov 10 2025
Time   : 14:55:24
Host   : "CIPHER-6869"
PID    : 18148
I/O    : uncollated
Case   : C:/MetaFoam_Cases/terrain_test_03
nProcs : 1
SigFpe : Enabling floating point exception trapping (FOAM_SIGFPE).
fileModificationChecking : Monitoring run-time modified files using timeStampMaster (fileModificationSkew 10)
allowSystemOperations : Allowing user-supplied system call operations

// * * * * * * * * * * * * * * * * * * * * * * * * * * * * * * * * * * * * * //
Create time

Create mesh for time = 0

Read mesh in = 0.018 s

Overall mesh bounding box  : (-55.3 -57.5 0) (79.7 107.5 60)
Relative tolerance         : 1e-06
Absolute matching distance : 0.00022147235

Reading refinement surfaces.
Read refinement surfaces in = 0.019 s

Reading refinement shells.
Refinement level 2 for all cells inside refinementBox
Refinement level according to distance to vegetation
    level 5 for all cells within 1 metre.
    level 4 for all cells within 2 metre.
Refinement level according to distance to buildings
    level 5 for all cells within 1 metre.
    level 4 for all cells within 2 metre.
Read refinement shells in = 0 s

Setting refinement level of surface to be consistent with shells.
Checked shell refinement in = 0 s

Reading features.
Read edgeMesh buildings.eMesh
    points      : 476
    edges       : 496
    boundingBox : (0 0 0) (20 50 8)

Refinement level according to distance to "buildings.eMesh" (476 points, 496 edges).
    level 4 for all cells within 0 metre.
Read features in = 0.003 s


Determining initial surface intersections
-----------------------------------------

Edge intersection testing:
    Number of edges             : 1367
    Number of edges to retest   : 1367
    Number of intersected edges : 7
Calculated surface intersections in = 0.008 s

Initial mesh : cells:396  faces:1367  points:600
Cells per refinement level:
    0	396

Adding patches for surface regions
----------------------------------

Patch Type                Region                        
----- ----                ------                        
vegetation:

6     wall                vegetation                    

buildings:

7     wall                buildings                     

Added patches in = 0.001 s

Selecting decompositionMethod none
Layer thickness specified as first layer and expansion ratio.

Refinement phase
----------------

Found point (10 25 21.9) in cell 148 on processor 0

Feature refinement iteration 0
------------------------------

Marked for refinement due to explicit features             : 15 cells.
Determined cells to refine in = 0.002 s
Selected for feature refinement : 15 cells (out of 396)
Edge intersection testing:
    Number of edges             : 1751
    Number of edges to retest   : 573
    Number of intersected edges : 59
Refined mesh in = 0.002 s
After refinement feature refinement iteration 0 : cells:501  faces:1751  points:783
Cells per refinement level:
    0	381
    1	120

Feature refinement iteration 1
------------------------------

Marked for refinement due to explicit features             : 48 cells.
Determined cells to refine in = 0.002 s
Selected for feature refinement : 63 cells (out of 501)
Edge intersection testing:
    Number of edges             : 3278
    Number of edges to retest   : 2133
    Number of intersected edges : 162
Refined mesh in = 0.006 s
After refinement feature refinement iteration 1 : cells:942  faces:3278  points:1453
Cells per refinement level:
    0	366
    1	192
    2	384

Feature refinement iteration 2
------------------------------

Marked for refinement due to explicit features             : 124 cells.
Determined cells to refine in = 0.007 s
Selected for feature refinement : 157 cells (out of 942)
Edge intersection testing:
    Number of edges             : 7262
    Number of edges to retest   : 5513
    Number of intersected edges : 518
Refined mesh in = 0.008 s
After refinement feature refinement iteration 2 : cells:2041  faces:7262  points:3307
Cells per refinement level:
    0	361
    1	204
    2	484
    3	992

Feature refinement iteration 3
------------------------------

Marked for refinement due to explicit features             : 245 cells.
Determined cells to refine in = 0.01 s
Selected for feature refinement : 373 cells (out of 2041)
Edge intersection testing:
    Number of edges             : 16610
    Number of edges to retest   : 13627
    Number of intersected edges : 1930
Refined mesh in = 0.022 s
After refinement feature refinement iteration 3 : cells:4652  faces:16610  points:7592
Cells per refinement level:
    0	355
    1	236
    2	506
    3	1595
    4	1960

Feature refinement iteration 4
------------------------------

Marked for refinement due to explicit features             : 11 cells.
Determined cells to refine in = 0.025 s
Selected for feature refinement : 11 cells (out of 4652)
Edge intersection testing:
    Number of edges             : 16895
    Number of edges to retest   : 659
    Number of intersected edges : 1978
Refined mesh in = 0.013 s
After refinement feature refinement iteration 4 : cells:4729  faces:16895  points:7726
Cells per refinement level:
    0	355
    1	236
    2	506
    3	1584
    4	2048

Feature refinement iteration 5
------------------------------

Marked for refinement due to explicit features             : 0 cells.
Determined cells to refine in = 0.026 s
Selected for feature refinement : 0 cells (out of 4729)
Stopping refining since too few cells selected.


Surface refinement iteration 0
------------------------------

Marked for refinement due to surface intersection          : 51 cells.
Marked for refinement due to curvature/regions             : 896 cells.
Determined cells to refine in = 0.005 s
Selected for refinement : 1160 cells (out of 4729)
Edge intersection testing:
    Number of edges             : 44900
    Number of edges to retest   : 38913
    Number of intersected edges : 5741
Refined mesh in = 0.06 s
After refinement surface refinement iteration 0 : cells:12849  faces:44900  points:19784
Cells per refinement level:
    0	355
    1	232
    2	450
    3	1808
    4	5300
    5	4704

Surface refinement iteration 1
------------------------------

Marked for refinement due to surface intersection          : 4 cells.
Marked for refinement due to curvature/regions             : 396 cells.
Determined cells to refine in = 0.012 s
Selected for refinement : 454 cells (out of 12849)
Edge intersection testing:
    Number of edges             : 55808
    Number of edges to retest   : 20639
    Number of intersected edges : 6926
Refined mesh in = 0.056 s
After refinement surface refinement iteration 1 : cells:16027  faces:55808  points:24399
Cells per refinement level:
    0	355
    1	232
    2	426
    3	1778
    4	6868
    5	6368

Surface refinement iteration 2
------------------------------

Marked for refinement due to surface intersection          : 0 cells.
Marked for refinement due to curvature/regions             : 697 cells.
Determined cells to refine in = 0.013 s
Selected for refinement : 788 cells (out of 16027)
Edge intersection testing:
    Number of edges             : 74480
    Number of edges to retest   : 26148
    Number of intersected edges : 8870
Refined mesh in = 0.076 s
After refinement surface refinement iteration 2 : cells:21543  faces:74480  points:32074
Cells per refinement level:
    0	355
    1	232
    2	422
    3	1700
    4	7074
    5	11760

Surface refinement iteration 3
------------------------------

Marked for refinement due to surface intersection          : 0 cells.
Marked for refinement due to curvature/regions             : 64 cells.
Determined cells to refine in = 0.015 s
Selected for refinement : 70 cells (out of 21543)
Edge intersection testing:
    Number of edges             : 75974
    Number of edges to retest   : 5821
    Number of intersected edges : 8903
Refined mesh in = 0.065 s
After refinement surface refinement iteration 3 : cells:22033  faces:75974  points:32585
Cells per refinement level:
    0	355
    1	232
    2	422
    3	1694
    4	7058
    5	12272

Surface refinement iteration 4
------------------------------

Marked for refinement due to surface intersection          : 0 cells.
Marked for refinement due to curvature/regions             : 8 cells.
Determined cells to refine in = 0.016 s
Selected for refinement : 10 cells (out of 22033)
Edge intersection testing:
    Number of edges             : 76178
    Number of edges to retest   : 991
    Number of intersected edges : 8909
Refined mesh in = 0.061 s
After refinement surface refinement iteration 4 : cells:22103  faces:76178  points:32647
Cells per refinement level:
    0	355
    1	232
    2	422
    3	1692
    4	7066
    5	12336

Surface refinement iteration 5
------------------------------

Marked for refinement due to surface intersection          : 0 cells.
Marked for refinement due to curvature/regions             : 0 cells.
Determined cells to refine in = 0.016 s
Selected for refinement : 0 cells (out of 22103)
Stopping refining since too few cells selected.


Removing mesh beyond surface intersections
------------------------------------------

Found point (10 25 21.9) in global region 0 out of 10 regions.
Keeping all cells in region 0 containing point (10 25 21.9)
Selected for keeping : 20011 cells.
Edge intersection testing:
    Number of edges             : 71933
    Number of edges to retest   : 5253
    Number of intersected edges : 8909

Shell refinement iteration 0
----------------------------

Marked for refinement due to distance to explicit features : 0 cells.
Marked for refinement due to refinement shells             : 3841 cells.
Determined cells to refine in = 0.223 s
Selected for internal refinement : 4826 cells (out of 20011)
Edge intersection testing:
    Number of edges             : 178343
    Number of edges to retest   : 168783
    Number of intersected edges : 12581
Refined mesh in = 0.25 s
After refinement shell refinement iteration 0 : cells:53793  faces:178343  points:70614
Cells per refinement level:
    0	322
    1	392
    2	1086
    3	2045
    4	9986
    5	39962

Shell refinement iteration 1
----------------------------

Marked for refinement due to distance to explicit features : 0 cells.
Marked for refinement due to refinement shells             : 907 cells.
Determined cells to refine in = 0.034 s
Selected for internal refinement : 1072 cells (out of 53793)
Edge intersection testing:
    Number of edges             : 200921
    Number of edges to retest   : 55427
    Number of intersected edges : 13185
Refined mesh in = 0.193 s
After refinement shell refinement iteration 1 : cells:61297  faces:200921  points:78058
Cells per refinement level:
    0	306
    1	503
    2	1165
    3	2425
    4	9688
    5	47210

Shell refinement iteration 2
----------------------------

Marked for refinement due to distance to explicit features : 0 cells.
Marked for refinement due to refinement shells             : 0 cells.
Determined cells to refine in = 0.035 s
Selected for internal refinement : 78 cells (out of 61297)
Edge intersection testing:
    Number of edges             : 202460
    Number of edges to retest   : 6673
    Number of intersected edges : 13185
Refined mesh in = 0.157 s
After refinement shell refinement iteration 2 : cells:61843  faces:202460  points:78516
Cells per refinement level:
    0	292
    1	606
    2	1224
    3	2487
    4	10024
    5	47210

Shell refinement iteration 3
----------------------------

Marked for refinement due to distance to explicit features : 0 cells.
Marked for refinement due to refinement shells             : 0 cells.
Determined cells to refine in = 0.033 s
Selected for internal refinement : 2 cells (out of 61843)
Edge intersection testing:
    Number of edges             : 202508
    Number of edges to retest   : 190
    Number of intersected edges : 13185
Refined mesh in = 0.15 s
After refinement shell refinement iteration 3 : cells:61857  faces:202508  points:78536
Cells per refinement level:
    0	290
    1	622
    2	1224
    3	2487
    4	10024
    5	47210

Shell refinement iteration 4
----------------------------

Marked for refinement due to distance to explicit features : 0 cells.
Marked for refinement due to refinement shells             : 0 cells.
Determined cells to refine in = 0.034 s
Selected for internal refinement : 0 cells (out of 61857)
Stopping refining since too few cells selected.


Dangling coarse cells refinement iteration 0
--------------------------------------------

Determined cells to refine in = 0.003 s
Selected for refinement : 3 cells (out of 61857)
Edge intersection testing:
    Number of edges             : 202553
    Number of edges to retest   : 375
    Number of intersected edges : 13185
Refined mesh in = 0.153 s
After refinement coarse cell refinement iteration 0 : cells:61878  faces:202553  points:78542
Cells per refinement level:
    0	290
    1	622
    2	1224
    3	2484
    4	10048
    5	47210

Dangling coarse cells refinement iteration 1
--------------------------------------------

Determined cells to refine in = 0.004 s
Selected for refinement : 0 cells (out of 61878)
Stopping refining since too few cells selected.


Dangling coarse cells refinement iteration 0
--------------------------------------------

Determined cells to refine in = 0.001 s
Selected for refinement : 0 cells (out of 61878)
Stopping refining since too few cells selected.


Splitting mesh at surface intersections
---------------------------------------

Introducing baffles for 13185 faces that are intersected by the surface.

Edge intersection testing:
    Number of edges             : 213773
    Number of edges to retest   : 87775
    Number of intersected edges : 24405
Created baffles in = 0.188 s


After introducing baffles : cells:61878  faces:213773  points:78542
Cells per refinement level:
    0	290
    1	622
    2	1224
    3	2484
    4	10048
    5	47210

Introducing baffles to block off problem cells
----------------------------------------------

markFacesOnProblemCells : marked 9023 additional internal faces to be converted into baffles.
Analyzed problem cells in = 0.117 s


Introducing baffles to delete problem cells.

Edge intersection testing:
    Number of edges             : 222796
    Number of edges to retest   : 32656
    Number of intersected edges : 24405
Created baffles in = 0.163 s


After introducing baffles : cells:61878  faces:222796  points:78542
Cells per refinement level:
    0	290
    1	622
    2	1224
    3	2484
    4	10048
    5	47210

Remove unreachable sections of mesh
-----------------------------------

Keeping all cells in region 0 containing point (10 25 21.9)
Selected for keeping : 42083 cells.
Edge intersection testing:
    Number of edges             : 142513
    Number of edges to retest   : 0
    Number of intersected edges : 11233
Split mesh in = 0.435 s


After subsetting : cells:42083  faces:142513  points:58544
Cells per refinement level:
    0	290
    1	622
    2	1224
    3	2484
    4	9405
    5	28058

Handling cells with snap problems
---------------------------------

Introducing baffles for 11233 faces that are intersected by the surface.

Edge intersection testing:
    Number of edges             : 142513
    Number of edges to retest   : 43498
    Number of intersected edges : 11233
Created baffles in = 0.092 s


After introducing baffles : cells:42083  faces:142513  points:58544
Cells per refinement level:
    0	290
    1	622
    2	1224
    3	2484
    4	9405
    5	28058

Introducing baffles to block off problem cells
----------------------------------------------

markFacesOnProblemCells : marked 0 additional internal faces to be converted into baffles.
Analyzed problem cells in = 0.079 s


Introducing baffles to delete problem cells.

Edge intersection testing:
    Number of edges             : 142513
    Number of edges to retest   : 0
    Number of intersected edges : 11233
Created baffles in = 0.068 s


After introducing baffles : cells:42083  faces:142513  points:58544
Cells per refinement level:
    0	290
    1	622
    2	1224
    3	2484
    4	9405
    5	28058

Remove unreachable sections of mesh
-----------------------------------

Keeping all cells in region 0 containing point (10 25 21.9)
Selected for keeping : 42083 cells.
Edge intersection testing:
    Number of edges             : 142513
    Number of edges to retest   : 0
    Number of intersected edges : 11233
Split mesh in = 0.31 s


After subsetting : cells:42083  faces:142513  points:58544
Cells per refinement level:
    0	290
    1	622
    2	1224
    3	2484
    4	9405
    5	28058

Merge free-standing baffles
---------------------------

freeStandingBaffles : detected 13 free-standing baffles out of 13

freeStandingBaffles : detected 0 planar (within 10 degrees) free-standing baffles out of 13

Detected free-standing baffles : 0
Merged free-standing baffles in = 0.028 s


dupNonManifoldPoints : Found : 11 non-manifold points (out of 58544)
Edge intersection testing:
    Number of edges             : 142513
    Number of edges to retest   : 0
    Number of intersected edges : 11233
Detected unsplittable baffles : 2
Edge intersection testing:
    Number of edges             : 142511
    Number of edges to retest   : 2
    Number of intersected edges : 11231
Keeping all cells in region 0 containing point (10 25 21.9)
Selected for keeping : 42083 cells.
Edge intersection testing:
    Number of edges             : 142511
    Number of edges to retest   : 0
    Number of intersected edges : 11231
Merged free-standing baffles in = 0.501 s.

Merge refined boundary faces
----------------------------

Merging 0 sets of faces.

No faces merged ...

Merging all points on surface that
- are used by only two boundary faces and
- make an angle with a cosine of more than 0.70710678.

No straight edges simplified and no points removed ...
Refined mesh : cells:42083  faces:142511  points:58555
Cells per refinement level:
    0	290
    1	622
    2	1224
    3	2484
    4	9405
    5	28058
Writing mesh to time constant
Wrote mesh in = 0.675 s.
Mesh refined in = 4.444 s.

Morphing phase
--------------


Snapping to features in 20 iterations ...
Constructing mesh displacer ...
Using mesh parameters 
{
    maxNonOrtho     65;
    maxBoundarySkewness 4;
    maxInternalSkewness 4;
    maxConcave      80;
    minVol          1e-13;
    minTetQuality   1e-12;
    minArea         -1;
    minTwist        0.01;
    minDeterminant  0.001;
    minFaceWeight   0.05;
    minVolRatio     0.01;
    minTriangleTwist -1;
    nSmoothScale    4;
    errorReduction  0.75;
    relaxed
    {
        maxNonOrtho     75;
    }
}


Checking initial mesh ...
Checking faces in error :
    non-orthogonality > 65  degrees                        : 0
    faces with face pyramid volume < 1e-13                 : 0
    faces with face-decomposition tet quality < 1e-12      : 0
    faces with concavity > 80  degrees                     : 0
    faces with skewness > 4   (internal) or 4   (boundary) : 0
    faces with interpolation weights (0..1)  < 0.05        : 0
    faces with volume ratio of neighbour cells < 0.01      : 0
    faces with face twist < 0.01                           : 0
    faces on cells with determinant < 0.001                : 0
Detected 0 illegal faces (concave, zero area or negative cell pyramid volume)
Checked initial mesh in = 0.089 s


Smoothing patch points ...
Smoothing iteration 0
Found 22 non-manifold point(s).

Scaling iteration 0
Moving mesh using displacement scaling : min:1  max:1
Checking faces in error :
    non-orthogonality > 65  degrees                        : 0
    faces with face pyramid volume < 1e-13                 : 0
    faces with face-decomposition tet quality < 1e-12      : 0
    faces with concavity > 80  degrees                     : 0
    faces with skewness > 4   (internal) or 4   (boundary) : 0
    faces with interpolation weights (0..1)  < 0.05        : 0
    faces with volume ratio of neighbour cells < 0.01      : 0
    faces with face twist < 0.01                           : 0
    faces on cells with determinant < 0.001                : 0
Successfully moved mesh

Smoothing iteration 1
Found 0 non-manifold point(s).

Scaling iteration 0
Moving mesh using displacement scaling : min:1  max:1
Checking faces in error :
    non-orthogonality > 65  degrees                        : 0
    faces with face pyramid volume < 1e-13                 : 0
    faces with face-decomposition tet quality < 1e-12      : 0
    faces with concavity > 80  degrees                     : 0
    faces with skewness > 4   (internal) or 4   (boundary) : 0
    faces with interpolation weights (0..1)  < 0.05        : 0
    faces with volume ratio of neighbour cells < 0.01      : 0
    faces with face twist < 0.01                           : 0
    faces on cells with determinant < 0.001                : 0
Successfully moved mesh

Smoothing iteration 2
Found 0 non-manifold point(s).

Scaling iteration 0
Moving mesh using displacement scaling : min:1  max:1
Checking faces in error :
    non-orthogonality > 65  degrees                        : 0
    faces with face pyramid volume < 1e-13                 : 0
    faces with face-decomposition tet quality < 1e-12      : 0
    faces with concavity > 80  degrees                     : 0
    faces with skewness > 4   (internal) or 4   (boundary) : 0
    faces with interpolation weights (0..1)  < 0.05        : 0
    faces with volume ratio of neighbour cells < 0.01      : 0
    faces with face twist < 0.01                           : 0
    faces on cells with determinant < 0.001                : 0
Successfully moved mesh

Patch points smoothed in = 0.331 s



Morph iteration 0
-----------------
Calculating patchDisplacement as distance to nearest surface point ...
Wanted displacement : average:0.10789585 min:0 max:0.28788239
Calculated surface displacement in = 0.013 s


Detecting near surfaces ...
Overriding nearest with intersection of close gaps at 0 out of 11438 points.
Overriding displacement on features :
   implicit features    : false
   explicit features    : true
   multi-patch features : false

Detected 0 baffle edges out of 22654 edges.
Initially selected 2832 points out of 11438 for reverse attraction.
Selected 5359 points out of 11438 for reverse attraction.
Stringing feature edges : changed 10 points
Stringing feature edges : changed 0 points
Attraction:
     linear   : max:(0.28788239 1.110223e-16 0) avg:(-0.012411456 0.0001351314 -0.0026013343)
     feature  : max:(0.31714824 -0.32964824 0.20464824) avg:(-0.0026585412 4.232483e-05 0.005625275)
Feature analysis : total master points:11438 attraction to :
    feature point   : 50
    feature edge    : 1054
    nearest surface : 0
    rest            : 10334

--> FOAM Warning : Displacement (0.00012383653 -4.705343e-05 -2.8060738e-06) at mesh point 18389 coord (5.1839302 34.493891 7.3721758) points through the surrounding patch faces
Smoothing displacement ...
Iteration 0
Iteration 10
Iteration 20
Iteration 30
Iteration 40
Iteration 50
Iteration 60
Iteration 70
Displacement smoothed in = 0.212 s


Moving mesh ...

Iteration 0
Moving mesh using displacement scaling : min:1  max:1
Checking faces in error :
    non-orthogonality > 65  degrees                        : 0
    faces with face pyramid volume < 1e-13                 : 0
    faces with face-decomposition tet quality < 1e-12      : 0
    faces with concavity > 80  degrees                     : 0
    faces with skewness > 4   (internal) or 4   (boundary) : 0
    faces with interpolation weights (0..1)  < 0.05        : 0
    faces with volume ratio of neighbour cells < 0.01      : 0
    faces with face twist < 0.01                           : 0
    faces on cells with determinant < 0.001                : 0
Successfully moved mesh
Moved mesh in = 0.108 s



Morph iteration 1
-----------------
Calculating patchDisplacement as distance to nearest surface point ...
Wanted displacement : average:0.10380607 min:0 max:0.27348827
Calculated surface displacement in = 0.011 s


Detecting near surfaces ...
Overriding nearest with intersection of close gaps at 0 out of 11438 points.
Overriding displacement on features :
   implicit features    : false
   explicit features    : true
   multi-patch features : false

Detected 0 baffle edges out of 22654 edges.
Initially selected 2832 points out of 11438 for reverse attraction.
Selected 5359 points out of 11438 for reverse attraction.
Stringing feature edges : changed 10 points
Stringing feature edges : changed 0 points
Attraction:
     linear   : max:(0.27348827 5.5511151e-17 0) avg:(-0.011791427 0.00012487436 -0.0025651612)
     feature  : max:(0.31635537 -0.32882412 0.19441583) avg:(-0.0025324572 4.0384135e-05 0.0055627782)
Feature analysis : total master points:11438 attraction to :
    feature point   : 50
    feature edge    : 1054
    nearest surface : 0
    rest            : 10334

--> FOAM Warning : Displacement (0.00019575568 -0.00020700702 0.00014607096) at mesh point 18389 coord (5.1840541 34.493844 7.372173) points through the surrounding patch faces
Smoothing displacement ...
Iteration 0
Iteration 10
Iteration 20
Iteration 30
Iteration 40
Iteration 50
Iteration 60
Iteration 70
Displacement smoothed in = 0.221 s


Moving mesh ...

Iteration 0
Moving mesh using displacement scaling : min:1  max:1
Checking faces in error :
    non-orthogonality > 65  degrees                        : 0
    faces with face pyramid volume < 1e-13                 : 0
    faces with face-decomposition tet quality < 1e-12      : 0
    faces with concavity > 80  degrees                     : 0
    faces with skewness > 4   (internal) or 4   (boundary) : 0
    faces with interpolation weights (0..1)  < 0.05        : 0
    faces with volume ratio of neighbour cells < 0.01      : 0
    faces with face twist < 0.01                           : 0
    faces on cells with determinant < 0.001                : 0
Successfully moved mesh
Moved mesh in = 0.11 s



Morph iteration 2
-----------------
Calculating patchDisplacement as distance to nearest surface point ...
Wanted displacement : average:0.095846501 min:0 max:0.24613944
Calculated surface displacement in = 0.013 s


Detecting near surfaces ...
Overriding nearest with intersection of close gaps at 0 out of 11438 points.
Overriding displacement on features :
   implicit features    : false
   explicit features    : true
   multi-patch features : false

Detected 0 baffle edges out of 22654 edges.
Initially selected 2835 points out of 11438 for reverse attraction.
Selected 5359 points out of 11438 for reverse attraction.
Stringing feature edges : changed 10 points
Stringing feature edges : changed 0 points
Attraction:
     linear   : max:(0.24613944 -5.5511151e-17 0) avg:(-0.01060741 0.00010439266 -0.0025088137)
     feature  : max:(0.31319182 -0.32553588 0.17497425) avg:(-0.0022919382 3.6878074e-05 0.0054201768)
Feature analysis : total master points:11438 attraction to :
    feature point   : 50
    feature edge    : 1054
    nearest surface : 0
    rest            : 10334

--> FOAM Warning : Displacement (0.00056625839 -0.00040533575 6.1630424e-05) at mesh point 17267 coord (8.0335387 14.219112 4.2190056) points through the surrounding patch faces
Smoothing displacement ...
Iteration 0
Iteration 10
Iteration 20
Iteration 30
Iteration 40
Iteration 50
Iteration 60
Iteration 70
Displacement smoothed in = 0.215 s


Moving mesh ...

Iteration 0
Moving mesh using displacement scaling : min:1  max:1
Checking faces in error :
    non-orthogonality > 65  degrees                        : 0
    faces with face pyramid volume < 1e-13                 : 0
    faces with face-decomposition tet quality < 1e-12      : 0
    faces with concavity > 80  degrees                     : 0
    faces with skewness > 4   (internal) or 4   (boundary) : 0
    faces with interpolation weights (0..1)  < 0.05        : 0
    faces with volume ratio of neighbour cells < 0.01      : 0
    faces with face twist < 0.01                           : 0
    faces on cells with determinant < 0.001                : 0
Successfully moved mesh
Moved mesh in = 0.102 s



Morph iteration 3
-----------------
Calculating patchDisplacement as distance to nearest surface point ...
Wanted displacement : average:0.084835998 min:0 max:0.20921853
Calculated surface displacement in = 0.011 s


Detecting near surfaces ...
Overriding nearest with intersection of close gaps at 0 out of 11438 points.
Overriding displacement on features :
   implicit features    : false
   explicit features    : true
   multi-patch features : false

Detected 0 baffle edges out of 22654 edges.
Initially selected 2837 points out of 11438 for reverse attraction.
Selected 5363 points out of 11438 for reverse attraction.
Stringing feature edges : changed 10 points
Stringing feature edges : changed 0 points
Attraction:
     linear   : max:(0.20921853 -1.110223e-16 0) avg:(-0.009001435 7.6133649e-05 -0.0024430684)
     feature  : max:(0.306145 -0.31821132 0.14872811) avg:(-0.0019656343 3.2444798e-05 0.0051864048)
Feature analysis : total master points:11438 attraction to :
    feature point   : 50
    feature edge    : 1054
    nearest surface : 0
    rest            : 10334

--> FOAM Warning : Displacement (0.001828625 -0.00051691179 3.7388434e-05) at mesh point 17267 coord (8.0341049 14.218707 4.2190672) points through the surrounding patch faces
Smoothing displacement ...
Iteration 0
Iteration 10
Iteration 20
Iteration 30
Iteration 40
Iteration 50
Iteration 60
Iteration 70
Displacement smoothed in = 0.221 s


Moving mesh ...

Iteration 0
Moving mesh using displacement scaling : min:1  max:1
Checking faces in error :
    non-orthogonality > 65  degrees                        : 0
    faces with face pyramid volume < 1e-13                 : 0
    faces with face-decomposition tet quality < 1e-12      : 0
    faces with concavity > 80  degrees                     : 0
    faces with skewness > 4   (internal) or 4   (boundary) : 0
    faces with interpolation weights (0..1)  < 0.05        : 0
    faces with volume ratio of neighbour cells < 0.01      : 0
    faces with face twist < 0.01                           : 0
    faces on cells with determinant < 0.001                : 0
Successfully moved mesh
Moved mesh in = 0.098 s



Morph iteration 4
-----------------
Calculating patchDisplacement as distance to nearest surface point ...
Wanted displacement : average:0.071763186 min:0 max:0.18276569
Calculated surface displacement in = 0.012 s


Detecting near surfaces ...
Overriding nearest with intersection of close gaps at 0 out of 11438 points.
Overriding displacement on features :
   implicit features    : false
   explicit features    : true
   multi-patch features : false

Detected 0 baffle edges out of 22654 edges.
Initially selected 2839 points out of 11438 for reverse attraction.
Selected 5361 points out of 11438 for reverse attraction.
Stringing feature edges : changed 10 points
Stringing feature edges : changed 0 points
Attraction:
     linear   : max:(-0.17306801 0.041938745 -0.041132719) avg:(-0.007177289 4.5719607e-05 -0.0023737316)
     feature  : max:(0.2938992 -0.30548287 0.11898249) avg:(-0.0015933761 2.786806e-05 0.0048582107)
Feature analysis : total master points:11438 attraction to :
    feature point   : 50
    feature edge    : 1054
    nearest surface : 0
    rest            : 10334

--> FOAM Warning : Displacement (0.0035494152 -0.0006073502 -2.1144614e-05) at mesh point 17267 coord (8.0359336 14.21819 4.2191046) points through the surrounding patch faces
Smoothing displacement ...
Iteration 0
Iteration 10
Iteration 20
Iteration 30
Iteration 40
Iteration 50
Iteration 60
Iteration 70
Displacement smoothed in = 0.207 s


Moving mesh ...

Iteration 0
Moving mesh using displacement scaling : min:1  max:1
Checking faces in error :
    non-orthogonality > 65  degrees                        : 0
    faces with face pyramid volume < 1e-13                 : 0
    faces with face-decomposition tet quality < 1e-12      : 0
    faces with concavity > 80  degrees                     : 0
    faces with skewness > 4   (internal) or 4   (boundary) : 0
    faces with interpolation weights (0..1)  < 0.05        : 0
    faces with volume ratio of neighbour cells < 0.01      : 0
    faces with face twist < 0.01                           : 0
    faces on cells with determinant < 0.001                : 0
Successfully moved mesh
Moved mesh in = 0.1 s



Morph iteration 5
-----------------
Calculating patchDisplacement as distance to nearest surface point ...
Wanted displacement : average:0.057879613 min:0 max:0.175112
Calculated surface displacement in = 0.01 s


Detecting near surfaces ...
Overriding nearest with intersection of close gaps at 0 out of 11438 points.
Overriding displacement on features :
   implicit features    : false
   explicit features    : true
   multi-patch features : false

Detected 0 baffle edges out of 22654 edges.
Initially selected 2840 points out of 11438 for reverse attraction.
Selected 5363 points out of 11438 for reverse attraction.
Stringing feature edges : changed 9 points
Stringing feature edges : changed 0 points
Attraction:
     linear   : max:(-0.16582044 0.040182476 -0.039410204) avg:(-0.0053474836 1.6773106e-05 -0.0022993622)
     feature  : max:(0.2755305 -0.28639019 0.089236867) avg:(-0.0012117434 8.4992775e-06 0.0044411641)
Feature analysis : total master points:11438 attraction to :
    feature point   : 49
    feature edge    : 1055
    nearest surface : 0
    rest            : 10334

--> FOAM Warning : Displacement (1.1850581e-06 0.00047261036 -0.00011304726) at mesh point 21295 coord (8.0114548 35.782403 3.7522753) points through the surrounding patch faces
Smoothing displacement ...
Iteration 0
Iteration 10
Iteration 20
Iteration 30
Iteration 40
Iteration 50
Iteration 60
Iteration 70
Displacement smoothed in = 0.227 s


Moving mesh ...

Iteration 0
Moving mesh using displacement scaling : min:1  max:1
Checking faces in error :
    non-orthogonality > 65  degrees                        : 0
    faces with face pyramid volume < 1e-13                 : 0
    faces with face-decomposition tet quality < 1e-12      : 0
    faces with concavity > 80  degrees                     : 0
    faces with skewness > 4   (internal) or 4   (boundary) : 0
    faces with interpolation weights (0..1)  < 0.05        : 0
    faces with volume ratio of neighbour cells < 0.01      : 0
    faces with face twist < 0.01                           : 0
    faces on cells with determinant < 0.001                : 0
Successfully moved mesh
Moved mesh in = 0.106 s



Morph iteration 6
-----------------
Calculating patchDisplacement as distance to nearest surface point ...
Wanted displacement : average:0.044597037 min:0 max:0.16279994
Calculated surface displacement in = 0.014 s


Detecting near surfaces ...
Overriding nearest with intersection of close gaps at 0 out of 11438 points.
Overriding displacement on features :
   implicit features    : false
   explicit features    : true
   multi-patch features : false

Detected 0 baffle edges out of 22654 edges.
Initially selected 2845 points out of 11438 for reverse attraction.
Selected 5368 points out of 11438 for reverse attraction.
Stringing feature edges : changed 9 points
Stringing feature edges : changed 0 points
Attraction:
     linear   : max:(-0.15416166 0.03735726 -0.036639286) avg:(-0.0037001855 -9.4289307e-07 -0.002216036)
     feature  : max:(0.25073276 -0.26061508 0.062465807) avg:(-0.00086971982 6.3962047e-06 0.0039244655)
Feature analysis : total master points:11438 attraction to :
    feature point   : 49
    feature edge    : 1055
    nearest surface : 0
    rest            : 10334

--> FOAM Warning : Displacement (0.00044008291 -0.00063897645 -0.00016466093) at mesh point 21266 coord (8.0114195 14.216276 3.7520433) points through the surrounding patch faces
Smoothing displacement ...
Iteration 0
Iteration 10
Iteration 20
Iteration 30
Iteration 40
Iteration 50
Iteration 60
Iteration 70
Displacement smoothed in = 0.216 s


Moving mesh ...

Iteration 0
Moving mesh using displacement scaling : min:1  max:1
Checking faces in error :
    non-orthogonality > 65  degrees                        : 0
    faces with face pyramid volume < 1e-13                 : 0
    faces with face-decomposition tet quality < 1e-12      : 0
    faces with concavity > 80  degrees                     : 0
    faces with skewness > 4   (internal) or 4   (boundary) : 0
    faces with interpolation weights (0..1)  < 0.05        : 0
    faces with volume ratio of neighbour cells < 0.01      : 0
    faces with face twist < 0.01                           : 0
    faces on cells with determinant < 0.001                : 0
Successfully moved mesh
Moved mesh in = 0.101 s



Morph iteration 7
-----------------
Calculating patchDisplacement as distance to nearest surface point ...
Wanted displacement : average:0.032744368 min:0 max:0.14582422
Calculated surface displacement in = 0.01 s


Detecting near surfaces ...
Overriding nearest with intersection of close gaps at 0 out of 11438 points.
Overriding displacement on features :
   implicit features    : false
   explicit features    : true
   multi-patch features : false

Detected 0 baffle edges out of 22654 edges.
Initially selected 2846 points out of 11438 for reverse attraction.
Selected 5366 points out of 11438 for reverse attraction.
Stringing feature edges : changed 7 points
Stringing feature edges : changed 0 points
Attraction:
     linear   : max:(-0.13808669 0.033461888 -0.03281878) avg:(-0.002359919 -1.0082929e-05 -0.0021149716)
     feature  : max:(0.220018 -0.22868973 0.040602774) avg:(-0.00056129394 -2.2702578e-06 0.0033710599)
Feature analysis : total master points:11438 attraction to :
    feature point   : 47
    feature edge    : 1057
    nearest surface : 0
    rest            : 10334

--> FOAM Warning : Displacement (0.0010445902 -0.00061228921 -0.00024442057) at mesh point 21266 coord (8.0118596 14.215637 3.7518786) points through the surrounding patch faces
Smoothing displacement ...
Iteration 0
Iteration 10
Iteration 20
Iteration 30
Iteration 40
Iteration 50
Iteration 60
Iteration 70
Displacement smoothed in = 0.22 s


Moving mesh ...

Iteration 0
Moving mesh using displacement scaling : min:1  max:1
Checking faces in error :
    non-orthogonality > 65  degrees                        : 0
    faces with face pyramid volume < 1e-13                 : 0
    faces with face-decomposition tet quality < 1e-12      : 0
    faces with concavity > 80  degrees                     : 0
    faces with skewness > 4   (internal) or 4   (boundary) : 0
    faces with interpolation weights (0..1)  < 0.05        : 0
    faces with volume ratio of neighbour cells < 0.01      : 0
    faces with face twist < 0.01                           : 0
    faces on cells with determinant < 0.001                : 0
Successfully moved mesh
Moved mesh in = 0.096 s



Morph iteration 8
-----------------
Calculating patchDisplacement as distance to nearest surface point ...
Wanted displacement : average:0.022892823 min:0 max:0.12494697
Calculated surface displacement in = 0.012 s


Detecting near surfaces ...
Overriding nearest with intersection of close gaps at 0 out of 11438 points.
Overriding displacement on features :
   implicit features    : false
   explicit features    : true
   multi-patch features : false

Detected 0 baffle edges out of 22654 edges.
Initially selected 2845 points out of 11438 for reverse attraction.
Selected 5362 points out of 11438 for reverse attraction.
Stringing feature edges : changed 3 points
Stringing feature edges : changed 0 points
Attraction:
     linear   : max:(-0.1183172 0.028671243 -0.028120206) avg:(-0.0013725482 -1.1587414e-05 -0.0019832751)
     feature  : max:(0.18481512 -0.19209937 0.024361665) avg:(-0.00036858401 1.3756639e-05 0.0027812415)
Feature analysis : total master points:11438 attraction to :
    feature point   : 43
    feature edge    : 1061
    nearest surface : 0
    rest            : 10334

--> FOAM Warning : Displacement (0.0015093941 -0.00055884872 -0.00030544518) at mesh point 21266 coord (8.0129042 14.215025 3.7516342) points through the surrounding patch faces
Smoothing displacement ...
Iteration 0
Iteration 10
Iteration 20
Iteration 30
Iteration 40
Iteration 50
Iteration 60
Iteration 70
Displacement smoothed in = 0.218 s


Moving mesh ...

Iteration 0
Moving mesh using displacement scaling : min:1  max:1
Checking faces in error :
    non-orthogonality > 65  degrees                        : 0
    faces with face pyramid volume < 1e-13                 : 0
    faces with face-decomposition tet quality < 1e-12      : 0
    faces with concavity > 80  degrees                     : 0
    faces with skewness > 4   (internal) or 4   (boundary) : 0
    faces with interpolation weights (0..1)  < 0.05        : 0
    faces with volume ratio of neighbour cells < 0.01      : 0
    faces with face twist < 0.01                           : 0
    faces on cells with determinant < 0.001                : 0
Successfully moved mesh
Moved mesh in = 0.102 s



Morph iteration 9
-----------------
Calculating patchDisplacement as distance to nearest surface point ...
Wanted displacement : average:0.015787549 min:0 max:0.10163842
Calculated surface displacement in = 0.01 s


Detecting near surfaces ...
Overriding nearest with intersection of close gaps at 0 out of 11438 points.
Overriding displacement on features :
   implicit features    : false
   explicit features    : true
   multi-patch features : false

Detected 0 baffle edges out of 22654 edges.
Initially selected 2841 points out of 11438 for reverse attraction.
Selected 5359 points out of 11438 for reverse attraction.
Stringing feature edges : changed 0 points
Attraction:
     linear   : max:(-0.096245418 0.023322693 -0.022874451) avg:(-0.00071831892 -6.1543573e-06 -0.0018059287)
     feature  : max:(0.14739006 -0.15319925 0.013398916) avg:(-0.00024697203 1.9878872e-05 0.0021881155)
Feature analysis : total master points:11438 attraction to :
    feature point   : 40
    feature edge    : 1064
    nearest surface : 0
    rest            : 10334

--> FOAM Warning : Displacement (0.0017524113 -0.00048446356 -0.00033578877) at mesh point 21266 coord (8.0144136 14.214466 3.7513288) points through the surrounding patch faces
Smoothing displacement ...
Iteration 0
Iteration 10
Iteration 20
Iteration 30
Iteration 40
Iteration 50
Iteration 60
Iteration 70
Displacement smoothed in = 0.214 s


Moving mesh ...

Iteration 0
Moving mesh using displacement scaling : min:1  max:1
Checking faces in error :
    non-orthogonality > 65  degrees                        : 0
    faces with face pyramid volume < 1e-13                 : 0
    faces with face-decomposition tet quality < 1e-12      : 0
    faces with concavity > 80  degrees                     : 0
    faces with skewness > 4   (internal) or 4   (boundary) : 0
    faces with interpolation weights (0..1)  < 0.05        : 0
    faces with volume ratio of neighbour cells < 0.01      : 0
    faces with face twist < 0.01                           : 0
    faces on cells with determinant < 0.001                : 0
Successfully moved mesh
Moved mesh in = 0.099 s



Morph iteration 10
-----------------
Calculating patchDisplacement as distance to nearest surface point ...
Wanted displacement : average:0.01092953 min:0 max:0.077842109
Calculated surface displacement in = 0.009 s


Detecting near surfaces ...
Overriding nearest with intersection of close gaps at 0 out of 11438 points.
Overriding displacement on features :
   implicit features    : false
   explicit features    : true
   multi-patch features : false

Detected 0 baffle edges out of 22654 edges.
Initially selected 2841 points out of 11438 for reverse attraction.
Selected 5359 points out of 11438 for reverse attraction.
Stringing feature edges : changed 0 points
Attraction:
     linear   : max:(-0.073711753 0.017862217 -0.017518921) avg:(-0.00033066938 1.4749826e-06 -0.0015742854)
     feature  : max:(0.11054254 -0.11489944 0.0066994578) avg:(-0.00014410393 1.4245376e-05 0.0016220757)
Feature analysis : total master points:11438 attraction to :
    feature point   : 40
    feature edge    : 1064
    nearest surface : 0
    rest            : 10334

--> FOAM Warning : Displacement (0.00174805 -0.00039653073 -0.00032906927) at mesh point 21266 coord (8.016166 14.213981 3.750993) points through the surrounding patch faces
Smoothing displacement ...
Iteration 0
Iteration 10
Iteration 20
Iteration 30
Iteration 40
Iteration 50
Iteration 60
Iteration 70
Displacement smoothed in = 0.209 s


Moving mesh ...

Iteration 0
Moving mesh using displacement scaling : min:1  max:1
Checking faces in error :
    non-orthogonality > 65  degrees                        : 0
    faces with face pyramid volume < 1e-13                 : 0
    faces with face-decomposition tet quality < 1e-12      : 0
    faces with concavity > 80  degrees                     : 0
    faces with skewness > 4   (internal) or 4   (boundary) : 0
    faces with interpolation weights (0..1)  < 0.05        : 0
    faces with volume ratio of neighbour cells < 0.01      : 0
    faces with face twist < 0.01                           : 0
    faces on cells with determinant < 0.001                : 0
Successfully moved mesh
Moved mesh in = 0.113 s



Morph iteration 11
-----------------
Calculating patchDisplacement as distance to nearest surface point ...
Wanted displacement : average:0.0074018095 min:0 max:0.055599245
Calculated surface displacement in = 0.01 s


Detecting near surfaces ...
Overriding nearest with intersection of close gaps at 0 out of 11438 points.
Overriding displacement on features :
   implicit features    : false
   explicit features    : true
   multi-patch features : false

Detected 0 baffle edges out of 22654 edges.
Initially selected 2840 points out of 11438 for reverse attraction.
Selected 5359 points out of 11438 for reverse attraction.
Stringing feature edges : changed 0 points
Attraction:
     linear   : max:(-0.052649111 0.012758208 -0.012513006) avg:(-0.00012788866 1.0602319e-05 -0.0012912659)
     feature  : max:(0.077103423 -0.080142357 0.003014756) avg:(-8.0155573e-05 9.6075802e-06 0.0011219874)
Feature analysis : total master points:11438 attraction to :
    feature point   : 40
    feature edge    : 1064
    nearest surface : 0
    rest            : 10334

--> FOAM Warning : Displacement (0.0015315046 -0.00030380298 -0.00028743187) at mesh point 21266 coord (8.017914 14.213585 3.7506639) points through the surrounding patch faces
Smoothing displacement ...
Iteration 0
Iteration 10
Iteration 20
Iteration 30
Iteration 40
Iteration 50
Iteration 60
Iteration 70
Displacement smoothed in = 0.209 s


Moving mesh ...

Iteration 0
Moving mesh using displacement scaling : min:1  max:1
Checking faces in error :
    non-orthogonality > 65  degrees                        : 0
    faces with face pyramid volume < 1e-13                 : 0
    faces with face-decomposition tet quality < 1e-12      : 3
    faces with concavity > 80  degrees                     : 0
    faces with skewness > 4   (internal) or 4   (boundary) : 0
    faces with interpolation weights (0..1)  < 0.05        : 0
    faces with volume ratio of neighbour cells < 0.01      : 0
    faces with face twist < 0.01                           : 0
    faces on cells with determinant < 0.001                : 0

Iteration 1
Moving mesh using displacement scaling : min:0.75  max:1
Checking faces in error :
    non-orthogonality > 65  degrees                        : 0
    faces with face pyramid volume < 1e-13                 : 0
    faces with face-decomposition tet quality < 1e-12      : 0
    faces with concavity > 80  degrees                     : 0
    faces with skewness > 4   (internal) or 4   (boundary) : 0
    faces with interpolation weights (0..1)  < 0.05        : 0
    faces with volume ratio of neighbour cells < 0.01      : 0
    faces with face twist < 0.01                           : 0
    faces on cells with determinant < 0.001                : 0
Successfully moved mesh
Moved mesh in = 0.147 s



Morph iteration 12
-----------------
Calculating patchDisplacement as distance to nearest surface point ...
Wanted displacement : average:0.0049024318 min:0 max:0.045676598
Calculated surface displacement in = 0.01 s


Detecting near surfaces ...
Overriding nearest with intersection of close gaps at 0 out of 11438 points.
Overriding displacement on features :
   implicit features    : false
   explicit features    : true
   multi-patch features : false

Detected 0 baffle edges out of 22654 edges.
Initially selected 2840 points out of 11438 for reverse attraction.
Selected 5359 points out of 11438 for reverse attraction.
Stringing feature edges : changed 0 points
Attraction:
     linear   : max:(0 -0.045676598 8.8817842e-16) avg:(-3.6954113e-05 1.6952352e-05 -0.000978421)
     feature  : max:(0.04934619 -0.051291109 0.0012059024) avg:(-4.2416547e-05 6.0054754e-06 0.00071396558)
Feature analysis : total master points:11438 attraction to :
    feature point   : 40
    feature edge    : 1064
    nearest surface : 0
    rest            : 10334

--> FOAM Warning : Displacement (0.0011912853 -0.00022384255 -0.00022641198) at mesh point 21266 coord (8.0194446 14.213281 3.7503766) points through the surrounding patch faces
Smoothing displacement ...
Iteration 0
Iteration 10
Iteration 20
Iteration 30
Iteration 40
Iteration 50
Iteration 60
Iteration 70
Displacement smoothed in = 0.21 s


Moving mesh ...

Iteration 0
Moving mesh using displacement scaling : min:1  max:1
Checking faces in error :
    non-orthogonality > 65  degrees                        : 0
    faces with face pyramid volume < 1e-13                 : 0
    faces with face-decomposition tet quality < 1e-12      : 16
    faces with concavity > 80  degrees                     : 0
    faces with skewness > 4   (internal) or 4   (boundary) : 0
    faces with interpolation weights (0..1)  < 0.05        : 0
    faces with volume ratio of neighbour cells < 0.01      : 0
    faces with face twist < 0.01                           : 0
    faces on cells with determinant < 0.001                : 0

Iteration 1
Moving mesh using displacement scaling : min:0.75  max:1
Checking faces in error :
    non-orthogonality > 65  degrees                        : 0
    faces with face pyramid volume < 1e-13                 : 0
    faces with face-decomposition tet quality < 1e-12      : 13
    faces with concavity > 80  degrees                     : 0
    faces with skewness > 4   (internal) or 4   (boundary) : 0
    faces with interpolation weights (0..1)  < 0.05        : 0
    faces with volume ratio of neighbour cells < 0.01      : 0
    faces with face twist < 0.01                           : 0
    faces on cells with determinant < 0.001                : 0

Iteration 2
Moving mesh using displacement scaling : min:0.5625  max:1
Checking faces in error :
    non-orthogonality > 65  degrees                        : 0
    faces with face pyramid volume < 1e-13                 : 0
    faces with face-decomposition tet quality < 1e-12      : 8
    faces with concavity > 80  degrees                     : 0
    faces with skewness > 4   (internal) or 4   (boundary) : 0
    faces with interpolation weights (0..1)  < 0.05        : 0
    faces with volume ratio of neighbour cells < 0.01      : 0
    faces with face twist < 0.01                           : 0
    faces on cells with determinant < 0.001                : 0

Iteration 3
Moving mesh using displacement scaling : min:0.421875  max:1
Checking faces in error :
    non-orthogonality > 65  degrees                        : 0
    faces with face pyramid volume < 1e-13                 : 0
    faces with face-decomposition tet quality < 1e-12      : 8
    faces with concavity > 80  degrees                     : 0
    faces with skewness > 4   (internal) or 4   (boundary) : 0
    faces with interpolation weights (0..1)  < 0.05        : 0
    faces with volume ratio of neighbour cells < 0.01      : 0
    faces with face twist < 0.01                           : 0
    faces on cells with determinant < 0.001                : 0

Iteration 4
Moving mesh using displacement scaling : min:0.31640625  max:1
Checking faces in error :
    non-orthogonality > 65  degrees                        : 0
    faces with face pyramid volume < 1e-13                 : 0
    faces with face-decomposition tet quality < 1e-12      : 7
    faces with concavity > 80  degrees                     : 0
    faces with skewness > 4   (internal) or 4   (boundary) : 0
    faces with interpolation weights (0..1)  < 0.05        : 0
    faces with volume ratio of neighbour cells < 0.01      : 0
    faces with face twist < 0.01                           : 0
    faces on cells with determinant < 0.001                : 0

Iteration 5
Moving mesh using displacement scaling : min:0.23730469  max:1
Checking faces in error :
    non-orthogonality > 65  degrees                        : 0
    faces with face pyramid volume < 1e-13                 : 0
    faces with face-decomposition tet quality < 1e-12      : 5
    faces with concavity > 80  degrees                     : 0
    faces with skewness > 4   (internal) or 4   (boundary) : 0
    faces with interpolation weights (0..1)  < 0.05        : 0
    faces with volume ratio of neighbour cells < 0.01      : 0
    faces with face twist < 0.01                           : 0
    faces on cells with determinant < 0.001                : 0

Iteration 6
Moving mesh using displacement scaling : min:0.17797852  max:1
Checking faces in error :
    non-orthogonality > 65  degrees                        : 0
    faces with face pyramid volume < 1e-13                 : 0
    faces with face-decomposition tet quality < 1e-12      : 4
    faces with concavity > 80  degrees                     : 0
    faces with skewness > 4   (internal) or 4   (boundary) : 0
    faces with interpolation weights (0..1)  < 0.05        : 0
    faces with volume ratio of neighbour cells < 0.01      : 0
    faces with face twist < 0.01                           : 0
    faces on cells with determinant < 0.001                : 0

Iteration 7
Moving mesh using displacement scaling : min:0.13348389  max:1
Checking faces in error :
    non-orthogonality > 65  degrees                        : 0
    faces with face pyramid volume < 1e-13                 : 0
    faces with face-decomposition tet quality < 1e-12      : 3
    faces with concavity > 80  degrees                     : 0
    faces with skewness > 4   (internal) or 4   (boundary) : 0
    faces with interpolation weights (0..1)  < 0.05        : 0
    faces with volume ratio of neighbour cells < 0.01      : 0
    faces with face twist < 0.01                           : 0
    faces on cells with determinant < 0.001                : 0

Iteration 8
Displacement scaling for error reduction set to 0.
Moving mesh using displacement scaling : min:0.10011292  max:1
Checking faces in error :
    non-orthogonality > 65  degrees                        : 0
    faces with face pyramid volume < 1e-13                 : 0
    faces with face-decomposition tet quality < 1e-12      : 2
    faces with concavity > 80  degrees                     : 0
    faces with skewness > 4   (internal) or 4   (boundary) : 0
    faces with interpolation weights (0..1)  < 0.05        : 0
    faces with volume ratio of neighbour cells < 0.01      : 0
    faces with face twist < 0.01                           : 0
    faces on cells with determinant < 0.001                : 0

Iteration 9
Moving mesh using displacement scaling : min:0  max:1
Checking faces in error :
    non-orthogonality > 65  degrees                        : 0
    faces with face pyramid volume < 1e-13                 : 0
    faces with face-decomposition tet quality < 1e-12      : 0
    faces with concavity > 80  degrees                     : 0
    faces with skewness > 4   (internal) or 4   (boundary) : 0
    faces with interpolation weights (0..1)  < 0.05        : 0
    faces with volume ratio of neighbour cells < 0.01      : 0
    faces with face twist < 0.01                           : 0
    faces on cells with determinant < 0.001                : 0
Successfully moved mesh
Moved mesh in = 0.572 s



Morph iteration 13
-----------------
Calculating patchDisplacement as distance to nearest surface point ...
Wanted displacement : average:0.0032736894 min:0 max:0.04065353
Calculated surface displacement in = 0.01 s


Detecting near surfaces ...
Overriding nearest with intersection of close gaps at 0 out of 11438 points.
Overriding displacement on features :
   implicit features    : false
   explicit features    : true
   multi-patch features : false

Detected 0 baffle edges out of 22654 edges.
Initially selected 2841 points out of 11438 for reverse attraction.
Selected 5359 points out of 11438 for reverse attraction.
Stringing feature edges : changed 0 points
Attraction:
     linear   : max:(0 -0.04065353 0) avg:(-2.6854336e-06 1.897387e-05 -0.00067098223)
     feature  : max:(0.028497425 -0.029620615 0.00042206584) avg:(-2.1127411e-05 3.4137986e-06 0.00041075813)
Feature analysis : total master points:11438 attraction to :
    feature point   : 40
    feature edge    : 1064
    nearest surface : 0
    rest            : 10334

--> FOAM Warning : Displacement (0.00084914914 -0.00017349374 -0.00017107791) at mesh point 21266 coord (8.020568 14.21307 3.7501631) points through the surrounding patch faces
Smoothing displacement ...
Iteration 0
Iteration 10
Iteration 20
Iteration 30
Iteration 40
Iteration 50
Iteration 60
Iteration 70
Displacement smoothed in = 0.202 s


Moving mesh ...

Iteration 0
Moving mesh using displacement scaling : min:1  max:1
Checking faces in error :
    non-orthogonality > 65  degrees                        : 0
    faces with face pyramid volume < 1e-13                 : 0
    faces with face-decomposition tet quality < 1e-12      : 16
    faces with concavity > 80  degrees                     : 0
    faces with skewness > 4   (internal) or 4   (boundary) : 0
    faces with interpolation weights (0..1)  < 0.05        : 0
    faces with volume ratio of neighbour cells < 0.01      : 0
    faces with face twist < 0.01                           : 0
    faces on cells with determinant < 0.001                : 0

Iteration 1
Moving mesh using displacement scaling : min:0.75  max:1
Checking faces in error :
    non-orthogonality > 65  degrees                        : 0
    faces with face pyramid volume < 1e-13                 : 0
    faces with face-decomposition tet quality < 1e-12      : 16
    faces with concavity > 80  degrees                     : 0
    faces with skewness > 4   (internal) or 4   (boundary) : 0
    faces with interpolation weights (0..1)  < 0.05        : 0
    faces with volume ratio of neighbour cells < 0.01      : 0
    faces with face twist < 0.01                           : 0
    faces on cells with determinant < 0.001                : 0

Iteration 2
Moving mesh using displacement scaling : min:0.5625  max:1
Checking faces in error :
    non-orthogonality > 65  degrees                        : 0
    faces with face pyramid volume < 1e-13                 : 0
    faces with face-decomposition tet quality < 1e-12      : 16
    faces with concavity > 80  degrees                     : 0
    faces with skewness > 4   (internal) or 4   (boundary) : 0
    faces with interpolation weights (0..1)  < 0.05        : 0
    faces with volume ratio of neighbour cells < 0.01      : 0
    faces with face twist < 0.01                           : 0
    faces on cells with determinant < 0.001                : 0

Iteration 3
Moving mesh using displacement scaling : min:0.421875  max:1
Checking faces in error :
    non-orthogonality > 65  degrees                        : 0
    faces with face pyramid volume < 1e-13                 : 0
    faces with face-decomposition tet quality < 1e-12      : 16
    faces with concavity > 80  degrees                     : 0
    faces with skewness > 4   (internal) or 4   (boundary) : 0
    faces with interpolation weights (0..1)  < 0.05        : 0
    faces with volume ratio of neighbour cells < 0.01      : 0
    faces with face twist < 0.01                           : 0
    faces on cells with determinant < 0.001                : 0

Iteration 4
Moving mesh using displacement scaling : min:0.31640625  max:1
Checking faces in error :
    non-orthogonality > 65  degrees                        : 0
    faces with face pyramid volume < 1e-13                 : 0
    faces with face-decomposition tet quality < 1e-12      : 16
    faces with concavity > 80  degrees                     : 0
    faces with skewness > 4   (internal) or 4   (boundary) : 0
    faces with interpolation weights (0..1)  < 0.05        : 0
    faces with volume ratio of neighbour cells < 0.01      : 0
    faces with face twist < 0.01                           : 0
    faces on cells with determinant < 0.001                : 0

Iteration 5
Moving mesh using displacement scaling : min:0.23730469  max:1
Checking faces in error :
    non-orthogonality > 65  degrees                        : 0
    faces with face pyramid volume < 1e-13                 : 0
    faces with face-decomposition tet quality < 1e-12      : 15
    faces with concavity > 80  degrees                     : 0
    faces with skewness > 4   (internal) or 4   (boundary) : 0
    faces with interpolation weights (0..1)  < 0.05        : 0
    faces with volume ratio of neighbour cells < 0.01      : 0
    faces with face twist < 0.01                           : 0
    faces on cells with determinant < 0.001                : 0

Iteration 6
Moving mesh using displacement scaling : min:0.17797852  max:1
Checking faces in error :
    non-orthogonality > 65  degrees                        : 0
    faces with face pyramid volume < 1e-13                 : 0
    faces with face-decomposition tet quality < 1e-12      : 13
    faces with concavity > 80  degrees                     : 0
    faces with skewness > 4   (internal) or 4   (boundary) : 0
    faces with interpolation weights (0..1)  < 0.05        : 0
    faces with volume ratio of neighbour cells < 0.01      : 0
    faces with face twist < 0.01                           : 0
    faces on cells with determinant < 0.001                : 0

Iteration 7
Moving mesh using displacement scaling : min:0.13348389  max:1
Checking faces in error :
    non-orthogonality > 65  degrees                        : 0
    faces with face pyramid volume < 1e-13                 : 0
    faces with face-decomposition tet quality < 1e-12      : 10
    faces with concavity > 80  degrees                     : 0
    faces with skewness > 4   (internal) or 4   (boundary) : 0
    faces with interpolation weights (0..1)  < 0.05        : 0
    faces with volume ratio of neighbour cells < 0.01      : 0
    faces with face twist < 0.01                           : 0
    faces on cells with determinant < 0.001                : 0

Iteration 8
Displacement scaling for error reduction set to 0.
Moving mesh using displacement scaling : min:0.10011292  max:1
Checking faces in error :
    non-orthogonality > 65  degrees                        : 0
    faces with face pyramid volume < 1e-13                 : 0
    faces with face-decomposition tet quality < 1e-12      : 6
    faces with concavity > 80  degrees                     : 0
    faces with skewness > 4   (internal) or 4   (boundary) : 0
    faces with interpolation weights (0..1)  < 0.05        : 0
    faces with volume ratio of neighbour cells < 0.01      : 0
    faces with face twist < 0.01                           : 0
    faces on cells with determinant < 0.001                : 0

Iteration 9
Moving mesh using displacement scaling : min:0  max:1
Checking faces in error :
    non-orthogonality > 65  degrees                        : 0
    faces with face pyramid volume < 1e-13                 : 0
    faces with face-decomposition tet quality < 1e-12      : 0
    faces with concavity > 80  degrees                     : 0
    faces with skewness > 4   (internal) or 4   (boundary) : 0
    faces with interpolation weights (0..1)  < 0.05        : 0
    faces with volume ratio of neighbour cells < 0.01      : 0
    faces with face twist < 0.01                           : 0
    faces on cells with determinant < 0.001                : 0
Successfully moved mesh
Moved mesh in = 0.632 s



Morph iteration 14
-----------------
Calculating patchDisplacement as distance to nearest surface point ...
Wanted displacement : average:0.002119503 min:0 max:0.029727291
Calculated surface displacement in = 0.01 s


Detecting near surfaces ...
Overriding nearest with intersection of close gaps at 0 out of 11438 points.
Overriding displacement on features :
   implicit features    : false
   explicit features    : true
   multi-patch features : false

Detected 0 baffle edges out of 22654 edges.
Initially selected 2841 points out of 11438 for reverse attraction.
Selected 5359 points out of 11438 for reverse attraction.
Stringing feature edges : changed 0 points
Attraction:
     linear   : max:(0 -0.029727291 0) avg:(6.7310409e-06 1.6834071e-05 -0.00040794239)
     feature  : max:(0.014533687 -0.015106514 0.00012661975) avg:(-9.6868097e-06 1.7234737e-06 0.00020898362)
Feature analysis : total master points:11438 attraction to :
    feature point   : 40
    feature edge    : 1064
    nearest surface : 0
    rest            : 10334

--> FOAM Warning : Displacement (0.00054139052 -0.00013765587 -0.00012114311) at mesh point 21266 coord (8.0213356 14.212913 3.7500085) points through the surrounding patch faces
Smoothing displacement ...
Iteration 0
Iteration 10
Iteration 20
Iteration 30
Iteration 40
Iteration 50
Iteration 60
Iteration 70
Displacement smoothed in = 0.214 s


Moving mesh ...

Iteration 0
Moving mesh using displacement scaling : min:1  max:1
Checking faces in error :
    non-orthogonality > 65  degrees                        : 0
    faces with face pyramid volume < 1e-13                 : 0
    faces with face-decomposition tet quality < 1e-12      : 16
    faces with concavity > 80  degrees                     : 0
    faces with skewness > 4   (internal) or 4   (boundary) : 0
    faces with interpolation weights (0..1)  < 0.05        : 0
    faces with volume ratio of neighbour cells < 0.01      : 0
    faces with face twist < 0.01                           : 0
    faces on cells with determinant < 0.001                : 0

Iteration 1
Moving mesh using displacement scaling : min:0.75  max:1
Checking faces in error :
    non-orthogonality > 65  degrees                        : 0
    faces with face pyramid volume < 1e-13                 : 0
    faces with face-decomposition tet quality < 1e-12      : 16
    faces with concavity > 80  degrees                     : 0
    faces with skewness > 4   (internal) or 4   (boundary) : 0
    faces with interpolation weights (0..1)  < 0.05        : 0
    faces with volume ratio of neighbour cells < 0.01      : 0
    faces with face twist < 0.01                           : 0
    faces on cells with determinant < 0.001                : 0

Iteration 2
Moving mesh using displacement scaling : min:0.5625  max:1
Checking faces in error :
    non-orthogonality > 65  degrees                        : 0
    faces with face pyramid volume < 1e-13                 : 0
    faces with face-decomposition tet quality < 1e-12      : 16
    faces with concavity > 80  degrees                     : 0
    faces with skewness > 4   (internal) or 4   (boundary) : 0
    faces with interpolation weights (0..1)  < 0.05        : 0
    faces with volume ratio of neighbour cells < 0.01      : 0
    faces with face twist < 0.01                           : 0
    faces on cells with determinant < 0.001                : 0

Iteration 3
Moving mesh using displacement scaling : min:0.421875  max:1
Checking faces in error :
    non-orthogonality > 65  degrees                        : 0
    faces with face pyramid volume < 1e-13                 : 0
    faces with face-decomposition tet quality < 1e-12      : 16
    faces with concavity > 80  degrees                     : 0
    faces with skewness > 4   (internal) or 4   (boundary) : 0
    faces with interpolation weights (0..1)  < 0.05        : 0
    faces with volume ratio of neighbour cells < 0.01      : 0
    faces with face twist < 0.01                           : 0
    faces on cells with determinant < 0.001                : 0

Iteration 4
Moving mesh using displacement scaling : min:0.31640625  max:1
Checking faces in error :
    non-orthogonality > 65  degrees                        : 0
    faces with face pyramid volume < 1e-13                 : 0
    faces with face-decomposition tet quality < 1e-12      : 16
    faces with concavity > 80  degrees                     : 0
    faces with skewness > 4   (internal) or 4   (boundary) : 0
    faces with interpolation weights (0..1)  < 0.05        : 0
    faces with volume ratio of neighbour cells < 0.01      : 0
    faces with face twist < 0.01                           : 0
    faces on cells with determinant < 0.001                : 0

Iteration 5
Moving mesh using displacement scaling : min:0.23730469  max:1
Checking faces in error :
    non-orthogonality > 65  degrees                        : 0
    faces with face pyramid volume < 1e-13                 : 0
    faces with face-decomposition tet quality < 1e-12      : 16
    faces with concavity > 80  degrees                     : 0
    faces with skewness > 4   (internal) or 4   (boundary) : 0
    faces with interpolation weights (0..1)  < 0.05        : 0
    faces with volume ratio of neighbour cells < 0.01      : 0
    faces with face twist < 0.01                           : 0
    faces on cells with determinant < 0.001                : 0

Iteration 6
Moving mesh using displacement scaling : min:0.17797852  max:1
Checking faces in error :
    non-orthogonality > 65  degrees                        : 0
    faces with face pyramid volume < 1e-13                 : 0
    faces with face-decomposition tet quality < 1e-12      : 16
    faces with concavity > 80  degrees                     : 0
    faces with skewness > 4   (internal) or 4   (boundary) : 0
    faces with interpolation weights (0..1)  < 0.05        : 0
    faces with volume ratio of neighbour cells < 0.01      : 0
    faces with face twist < 0.01                           : 0
    faces on cells with determinant < 0.001                : 0

Iteration 7
Moving mesh using displacement scaling : min:0.13348389  max:1
Checking faces in error :
    non-orthogonality > 65  degrees                        : 0
    faces with face pyramid volume < 1e-13                 : 0
    faces with face-decomposition tet quality < 1e-12      : 16
    faces with concavity > 80  degrees                     : 0
    faces with skewness > 4   (internal) or 4   (boundary) : 0
    faces with interpolation weights (0..1)  < 0.05        : 0
    faces with volume ratio of neighbour cells < 0.01      : 0
    faces with face twist < 0.01                           : 0
    faces on cells with determinant < 0.001                : 0

Iteration 8
Displacement scaling for error reduction set to 0.
Moving mesh using displacement scaling : min:0.10011292  max:1
Checking faces in error :
    non-orthogonality > 65  degrees                        : 0
    faces with face pyramid volume < 1e-13                 : 0
    faces with face-decomposition tet quality < 1e-12      : 12
    faces with concavity > 80  degrees                     : 0
    faces with skewness > 4   (internal) or 4   (boundary) : 0
    faces with interpolation weights (0..1)  < 0.05        : 0
    faces with volume ratio of neighbour cells < 0.01      : 0
    faces with face twist < 0.01                           : 0
    faces on cells with determinant < 0.001                : 0

Iteration 9
Moving mesh using displacement scaling : min:0  max:1
Checking faces in error :
    non-orthogonality > 65  degrees                        : 0
    faces with face pyramid volume < 1e-13                 : 0
    faces with face-decomposition tet quality < 1e-12      : 0
    faces with concavity > 80  degrees                     : 0
    faces with skewness > 4   (internal) or 4   (boundary) : 0
    faces with interpolation weights (0..1)  < 0.05        : 0
    faces with volume ratio of neighbour cells < 0.01      : 0
    faces with face twist < 0.01                           : 0
    faces on cells with determinant < 0.001                : 0
Successfully moved mesh
Moved mesh in = 0.644 s



Morph iteration 15
-----------------
Calculating patchDisplacement as distance to nearest surface point ...
Wanted displacement : average:0.0012170449 min:0 max:0.027349119
Calculated surface displacement in = 0.009 s


Detecting near surfaces ...
Overriding nearest with intersection of close gaps at 2 out of 11438 points.
Overriding displacement on features :
   implicit features    : false
   explicit features    : true
   multi-patch features : false

Detected 0 baffle edges out of 22654 edges.
Initially selected 2840 points out of 11438 for reverse attraction.
Selected 5359 points out of 11438 for reverse attraction.
Stringing feature edges : changed 0 points
Attraction:
     linear   : max:(0.022189164 0.0099933451 -0.012479918) avg:(7.415099e-06 1.3953487e-05 -0.00021596016)
     feature  : max:(0.0063584879 -0.0066090998 3.1654938e-05) avg:(-3.9465052e-06 7.4931524e-07 9.1295593e-05)
Feature analysis : total master points:11438 attraction to :
    feature point   : 40
    feature edge    : 1064
    nearest surface : 0
    rest            : 10334

--> FOAM Warning : Displacement (0.00029043619 -0.00011454176 -7.779851e-05) at mesh point 21266 coord (8.021825 14.212789 3.749899) points through the surrounding patch faces
Smoothing displacement ...
Iteration 0
Iteration 10
Iteration 20
Iteration 30
Iteration 40
Iteration 50
Iteration 60
Iteration 70
Displacement smoothed in = 0.213 s


Moving mesh ...

Iteration 0
Moving mesh using displacement scaling : min:1  max:1
Checking faces in error :
    non-orthogonality > 65  degrees                        : 0
    faces with face pyramid volume < 1e-13                 : 0
    faces with face-decomposition tet quality < 1e-12      : 16
    faces with concavity > 80  degrees                     : 0
    faces with skewness > 4   (internal) or 4   (boundary) : 0
    faces with interpolation weights (0..1)  < 0.05        : 0
    faces with volume ratio of neighbour cells < 0.01      : 0
    faces with face twist < 0.01                           : 1
    faces on cells with determinant < 0.001                : 0

Iteration 1
Moving mesh using displacement scaling : min:0.75  max:1
Checking faces in error :
    non-orthogonality > 65  degrees                        : 0
    faces with face pyramid volume < 1e-13                 : 0
    faces with face-decomposition tet quality < 1e-12      : 16
    faces with concavity > 80  degrees                     : 0
    faces with skewness > 4   (internal) or 4   (boundary) : 0
    faces with interpolation weights (0..1)  < 0.05        : 0
    faces with volume ratio of neighbour cells < 0.01      : 0
    faces with face twist < 0.01                           : 0
    faces on cells with determinant < 0.001                : 0

Iteration 2
Moving mesh using displacement scaling : min:0.5625  max:1
Checking faces in error :
    non-orthogonality > 65  degrees                        : 0
    faces with face pyramid volume < 1e-13                 : 0
    faces with face-decomposition tet quality < 1e-12      : 16
    faces with concavity > 80  degrees                     : 0
    faces with skewness > 4   (internal) or 4   (boundary) : 0
    faces with interpolation weights (0..1)  < 0.05        : 0
    faces with volume ratio of neighbour cells < 0.01      : 0
    faces with face twist < 0.01                           : 0
    faces on cells with determinant < 0.001                : 0

Iteration 3
Moving mesh using displacement scaling : min:0.421875  max:1
Checking faces in error :
    non-orthogonality > 65  degrees                        : 0
    faces with face pyramid volume < 1e-13                 : 0
    faces with face-decomposition tet quality < 1e-12      : 16
    faces with concavity > 80  degrees                     : 0
    faces with skewness > 4   (internal) or 4   (boundary) : 0
    faces with interpolation weights (0..1)  < 0.05        : 0
    faces with volume ratio of neighbour cells < 0.01      : 0
    faces with face twist < 0.01                           : 0
    faces on cells with determinant < 0.001                : 0

Iteration 4
Moving mesh using displacement scaling : min:0.31640625  max:1
Checking faces in error :
    non-orthogonality > 65  degrees                        : 0
    faces with face pyramid volume < 1e-13                 : 0
    faces with face-decomposition tet quality < 1e-12      : 16
    faces with concavity > 80  degrees                     : 0
    faces with skewness > 4   (internal) or 4   (boundary) : 0
    faces with interpolation weights (0..1)  < 0.05        : 0
    faces with volume ratio of neighbour cells < 0.01      : 0
    faces with face twist < 0.01                           : 0
    faces on cells with determinant < 0.001                : 0

Iteration 5
Moving mesh using displacement scaling : min:0.23730469  max:1
Checking faces in error :
    non-orthogonality > 65  degrees                        : 0
    faces with face pyramid volume < 1e-13                 : 0
    faces with face-decomposition tet quality < 1e-12      : 16
    faces with concavity > 80  degrees                     : 0
    faces with skewness > 4   (internal) or 4   (boundary) : 0
    faces with interpolation weights (0..1)  < 0.05        : 0
    faces with volume ratio of neighbour cells < 0.01      : 0
    faces with face twist < 0.01                           : 0
    faces on cells with determinant < 0.001                : 0

Iteration 6
Moving mesh using displacement scaling : min:0.17797852  max:1
Checking faces in error :
    non-orthogonality > 65  degrees                        : 0
    faces with face pyramid volume < 1e-13                 : 0
    faces with face-decomposition tet quality < 1e-12      : 16
    faces with concavity > 80  degrees                     : 0
    faces with skewness > 4   (internal) or 4   (boundary) : 0
    faces with interpolation weights (0..1)  < 0.05        : 0
    faces with volume ratio of neighbour cells < 0.01      : 0
    faces with face twist < 0.01                           : 0
    faces on cells with determinant < 0.001                : 0

Iteration 7
Moving mesh using displacement scaling : min:0.13348389  max:1
Checking faces in error :
    non-orthogonality > 65  degrees                        : 0
    faces with face pyramid volume < 1e-13                 : 0
    faces with face-decomposition tet quality < 1e-12      : 16
    faces with concavity > 80  degrees                     : 0
[...]
Checking faces in error :
    non-orthogonality > 65  degrees                        : 0
    faces with face pyramid volume < 1e-13                 : 0
    faces with face-decomposition tet quality < 1e-12      : 0
    faces with concavity > 80  degrees                     : 0
    faces with skewness > 4   (internal) or 4   (boundary) : 0
    faces with interpolation weights (0..1)  < 0.05        : 0
    faces with volume ratio of neighbour cells < 0.01      : 0
    faces with face twist < 0.01                           : 0
    faces on cells with determinant < 0.001                : 0
Successfully moved mesh
Moved mesh in = 0.647 s



Morph iteration 18
-----------------
Calculating patchDisplacement as distance to nearest surface point ...
Wanted displacement : average:0.00011530222 min:0 max:0.027349119
Calculated surface displacement in = 0.008 s


Detecting near surfaces ...
Overriding nearest with intersection of close gaps at 3 out of 11438 points.
Overriding displacement on features :
   implicit features    : false
   explicit features    : true
   multi-patch features : false

Detected 0 baffle edges out of 22654 edges.
Initially selected 2840 points out of 11438 for reverse attraction.
Selected 5359 points out of 11438 for reverse attraction.
Stringing feature edges : changed 0 points
Attraction:
     linear   : max:(0.022189164 0.0099933451 -0.012479918) avg:(8.9645897e-06 1.2857546e-06 -1.1040199e-05)
     feature  : max:(0.00012069046 -0.00012544732 9.4964814e-08) avg:(-6.8697885e-08 1.4122509e-08 1.7300106e-06)
Feature analysis : total master points:11438 attraction to :
    feature point   : 40
    feature edge    : 1064
    nearest surface : 0
    rest            : 10334

--> FOAM Warning : Displacement (7.1175837e-05 -3.801118e-05 -2.2054027e-05) at mesh point 21295 coord (8.0265502 35.786441 3.7491185) points through the surrounding patch faces
Smoothing displacement ...
Iteration 0
Iteration 10
Iteration 20
Iteration 30
Iteration 40
Iteration 50
Iteration 60
Iteration 70
Displacement smoothed in = 0.218 s


Moving mesh ...

Iteration 0
Moving mesh using displacement scaling : min:1  max:1
Checking faces in error :
    non-orthogonality > 65  degrees                        : 0
    faces with face pyramid volume < 1e-13                 : 0
    faces with face-decomposition tet quality < 1e-12      : 16
    faces with concavity > 80  degrees                     : 0
    faces with skewness > 4   (internal) or 4   (boundary) : 0
    faces with interpolation weights (0..1)  < 0.05        : 0
    faces with volume ratio of neighbour cells < 0.01      : 0
    faces with face twist < 0.01                           : 1
    faces on cells with determinant < 0.001                : 0

Iteration 1
Moving mesh using displacement scaling : min:0.75  max:1
Checking faces in error :
    non-orthogonality > 65  degrees                        : 0
    faces with face pyramid volume < 1e-13                 : 0
    faces with face-decomposition tet quality < 1e-12      : 16
    faces with concavity > 80  degrees                     : 0
    faces with skewness > 4   (internal) or 4   (boundary) : 0
    faces with interpolation weights (0..1)  < 0.05        : 0
    faces with volume ratio of neighbour cells < 0.01      : 0
    faces with face twist < 0.01                           : 1
    faces on cells with determinant < 0.001                : 0

Iteration 2
Moving mesh using displacement scaling : min:0.5625  max:1
Checking faces in error :
    non-orthogonality > 65  degrees                        : 0
    faces with face pyramid volume < 1e-13                 : 0
    faces with face-decomposition tet quality < 1e-12      : 16
    faces with concavity > 80  degrees                     : 0
    faces with skewness > 4   (internal) or 4   (boundary) : 0
    faces with interpolation weights (0..1)  < 0.05        : 0
    faces with volume ratio of neighbour cells < 0.01      : 0
    faces with face twist < 0.01                           : 1
    faces on cells with determinant < 0.001                : 0

Iteration 3
Moving mesh using displacement scaling : min:0.421875  max:1
Checking faces in error :
    non-orthogonality > 65  degrees                        : 0
    faces with face pyramid volume < 1e-13                 : 0
    faces with face-decomposition tet quality < 1e-12      : 16
    faces with concavity > 80  degrees                     : 0
    faces with skewness > 4   (internal) or 4   (boundary) : 0
    faces with interpolation weights (0..1)  < 0.05        : 0
    faces with volume ratio of neighbour cells < 0.01      : 0
    faces with face twist < 0.01                           : 1
    faces on cells with determinant < 0.001                : 0

Iteration 4
Moving mesh using displacement scaling : min:0.31640625  max:1
Checking faces in error :
    non-orthogonality > 65  degrees                        : 0
    faces with face pyramid volume < 1e-13                 : 0
    faces with face-decomposition tet quality < 1e-12      : 16
    faces with concavity > 80  degrees                     : 0
    faces with skewness > 4   (internal) or 4   (boundary) : 0
    faces with interpolation weights (0..1)  < 0.05        : 0
    faces with volume ratio of neighbour cells < 0.01      : 0
    faces with face twist < 0.01                           : 1
    faces on cells with determinant < 0.001                : 0

Iteration 5
Moving mesh using displacement scaling : min:0.23730469  max:1
Checking faces in error :
    non-orthogonality > 65  degrees                        : 0
    faces with face pyramid volume < 1e-13                 : 0
    faces with face-decomposition tet quality < 1e-12      : 16
    faces with concavity > 80  degrees                     : 0
    faces with skewness > 4   (internal) or 4   (boundary) : 0
    faces with interpolation weights (0..1)  < 0.05        : 0
    faces with volume ratio of neighbour cells < 0.01      : 0
    faces with face twist < 0.01                           : 1
    faces on cells with determinant < 0.001                : 0

Iteration 6
Moving mesh using displacement scaling : min:0.17797852  max:1
Checking faces in error :
    non-orthogonality > 65  degrees                        : 0
    faces with face pyramid volume < 1e-13                 : 0
    faces with face-decomposition tet quality < 1e-12      : 16
    faces with concavity > 80  degrees                     : 0
    faces with skewness > 4   (internal) or 4   (boundary) : 0
    faces with interpolation weights (0..1)  < 0.05        : 0
    faces with volume ratio of neighbour cells < 0.01      : 0
    faces with face twist < 0.01                           : 1
    faces on cells with determinant < 0.001                : 0

Iteration 7
Moving mesh using displacement scaling : min:0.13348389  max:1
Checking faces in error :
    non-orthogonality > 65  degrees                        : 0
    faces with face pyramid volume < 1e-13                 : 0
    faces with face-decomposition tet quality < 1e-12      : 16
    faces with concavity > 80  degrees                     : 0
    faces with skewness > 4   (internal) or 4   (boundary) : 0
    faces with interpolation weights (0..1)  < 0.05        : 0
    faces with volume ratio of neighbour cells < 0.01      : 0
    faces with face twist < 0.01                           : 1
    faces on cells with determinant < 0.001                : 0

Iteration 8
Displacement scaling for error reduction set to 0.
Moving mesh using displacement scaling : min:0.10011292  max:1
Checking faces in error :
    non-orthogonality > 65  degrees                        : 0
    faces with face pyramid volume < 1e-13                 : 0
    faces with face-decomposition tet quality < 1e-12      : 16
    faces with concavity > 80  degrees                     : 0
    faces with skewness > 4   (internal) or 4   (boundary) : 0
    faces with interpolation weights (0..1)  < 0.05        : 0
    faces with volume ratio of neighbour cells < 0.01      : 0
    faces with face twist < 0.01                           : 1
    faces on cells with determinant < 0.001                : 0

Iteration 9
Moving mesh using displacement scaling : min:0  max:1
Checking faces in error :
    non-orthogonality > 65  degrees                        : 0
    faces with face pyramid volume < 1e-13                 : 0
    faces with face-decomposition tet quality < 1e-12      : 0
    faces with concavity > 80  degrees                     : 0
    faces with skewness > 4   (internal) or 4   (boundary) : 0
    faces with interpolation weights (0..1)  < 0.05        : 0
    faces with volume ratio of neighbour cells < 0.01      : 0
    faces with face twist < 0.01                           : 0
    faces on cells with determinant < 0.001                : 0
Successfully moved mesh
Moved mesh in = 0.667 s



Morph iteration 19
-----------------
Calculating patchDisplacement as distance to nearest surface point ...
Wanted displacement : average:6.9245882e-05 min:0 max:0.027349119
Calculated surface displacement in = 0.009 s


Detecting near surfaces ...
Overriding nearest with intersection of close gaps at 2 out of 11438 points.
Overriding displacement on features :
   implicit features    : false
   explicit features    : true
   multi-patch features : false

Detected 0 baffle edges out of 22654 edges.
Initially selected 2840 points out of 11438 for reverse attraction.
Selected 5359 points out of 11438 for reverse attraction.
Stringing feature edges : changed 0 points
Attraction:
     linear   : max:(0.022189164 0.0099933451 -0.012479918) avg:(7.5036768e-06 1.6968578e-06 -3.731349e-06)
     feature  : max:(1.176732e-05 -1.2231114e-05 4.7482409e-09) avg:(-6.6426637e-09 1.3760507e-09 1.6865043e-07)
Feature analysis : total master points:11438 attraction to :
    feature point   : 40
    feature edge    : 1064
    nearest surface : 0
    rest            : 10334

--> FOAM Warning : Displacement (-1.3580682e-07 1.8090768e-07 5.6719129e-07) at mesh point 18006 coord (5.1726914 36.248087 7.6355878) points through the surrounding patch faces
Smoothing displacement ...
Iteration 0
Iteration 10
Iteration 20
Iteration 30
Iteration 40
Iteration 50
Iteration 60
Iteration 70
Displacement smoothed in = 0.212 s


Moving mesh ...

Iteration 0
Moving mesh using displacement scaling : min:1  max:1
Checking faces in error :
    non-orthogonality > 65  degrees                        : 0
    faces with face pyramid volume < 1e-13                 : 0
    faces with face-decomposition tet quality < 1e-12      : 16
    faces with concavity > 80  degrees                     : 0
    faces with skewness > 4   (internal) or 4   (boundary) : 0
    faces with interpolation weights (0..1)  < 0.05        : 0
    faces with volume ratio of neighbour cells < 0.01      : 0
    faces with face twist < 0.01                           : 1
    faces on cells with determinant < 0.001                : 0

Iteration 1
Moving mesh using displacement scaling : min:0.75  max:1
Checking faces in error :
    non-orthogonality > 65  degrees                        : 0
    faces with face pyramid volume < 1e-13                 : 0
    faces with face-decomposition tet quality < 1e-12      : 16
    faces with concavity > 80  degrees                     : 0
    faces with skewness > 4   (internal) or 4   (boundary) : 0
    faces with interpolation weights (0..1)  < 0.05        : 0
    faces with volume ratio of neighbour cells < 0.01      : 0
    faces with face twist < 0.01                           : 1
    faces on cells with determinant < 0.001                : 0

Iteration 2
Moving mesh using displacement scaling : min:0.5625  max:1
Checking faces in error :
    non-orthogonality > 65  degrees                        : 0
    faces with face pyramid volume < 1e-13                 : 0
    faces with face-decomposition tet quality < 1e-12      : 16
    faces with concavity > 80  degrees                     : 0
    faces with skewness > 4   (internal) or 4   (boundary) : 0
    faces with interpolation weights (0..1)  < 0.05        : 0
    faces with volume ratio of neighbour cells < 0.01      : 0
    faces with face twist < 0.01                           : 1
    faces on cells with determinant < 0.001                : 0

Iteration 3
Moving mesh using displacement scaling : min:0.421875  max:1
Checking faces in error :
    non-orthogonality > 65  degrees                        : 0
    faces with face pyramid volume < 1e-13                 : 0
    faces with face-decomposition tet quality < 1e-12      : 16
    faces with concavity > 80  degrees                     : 0
    faces with skewness > 4   (internal) or 4   (boundary) : 0
    faces with interpolation weights (0..1)  < 0.05        : 0
    faces with volume ratio of neighbour cells < 0.01      : 0
    faces with face twist < 0.01                           : 1
    faces on cells with determinant < 0.001                : 0

Iteration 4
Moving mesh using displacement scaling : min:0.31640625  max:1
Checking faces in error :
    non-orthogonality > 65  degrees                        : 0
    faces with face pyramid volume < 1e-13                 : 0
    faces with face-decomposition tet quality < 1e-12      : 16
    faces with concavity > 80  degrees                     : 0
    faces with skewness > 4   (internal) or 4   (boundary) : 0
    faces with interpolation weights (0..1)  < 0.05        : 0
    faces with volume ratio of neighbour cells < 0.01      : 0
    faces with face twist < 0.01                           : 1
    faces on cells with determinant < 0.001                : 0

Iteration 5
Moving mesh using displacement scaling : min:0.23730469  max:1
Checking faces in error :
    non-orthogonality > 65  degrees                        : 0
    faces with face pyramid volume < 1e-13                 : 0
    faces with face-decomposition tet quality < 1e-12      : 16
    faces with concavity > 80  degrees                     : 0
    faces with skewness > 4   (internal) or 4   (boundary) : 0
    faces with interpolation weights (0..1)  < 0.05        : 0
    faces with volume ratio of neighbour cells < 0.01      : 0
    faces with face twist < 0.01                           : 1
    faces on cells with determinant < 0.001                : 0

Iteration 6
Moving mesh using displacement scaling : min:0.17797852  max:1
Checking faces in error :
    non-orthogonality > 65  degrees                        : 0
    faces with face pyramid volume < 1e-13                 : 0
    faces with face-decomposition tet quality < 1e-12      : 16
    faces with concavity > 80  degrees                     : 0
    faces with skewness > 4   (internal) or 4   (boundary) : 0
    faces with interpolation weights (0..1)  < 0.05        : 0
    faces with volume ratio of neighbour cells < 0.01      : 0
    faces with face twist < 0.01                           : 1
    faces on cells with determinant < 0.001                : 0

Iteration 7
Moving mesh using displacement scaling : min:0.13348389  max:1
Checking faces in error :
    non-orthogonality > 65  degrees                        : 0
    faces with face pyramid volume < 1e-13                 : 0
    faces with face-decomposition tet quality < 1e-12      : 16
    faces with concavity > 80  degrees                     : 0
    faces with skewness > 4   (internal) or 4   (boundary) : 0
    faces with interpolation weights (0..1)  < 0.05        : 0
    faces with volume ratio of neighbour cells < 0.01      : 0
    faces with face twist < 0.01                           : 1
    faces on cells with determinant < 0.001                : 0

Iteration 8
Displacement scaling for error reduction set to 0.
Moving mesh using displacement scaling : min:0.10011292  max:1
Checking faces in error :
    non-orthogonality > 65  degrees                        : 0
    faces with face pyramid volume < 1e-13                 : 0
    faces with face-decomposition tet quality < 1e-12      : 16
    faces with concavity > 80  degrees                     : 0
    faces with skewness > 4   (internal) or 4   (boundary) : 0
    faces with interpolation weights (0..1)  < 0.05        : 0
    faces with volume ratio of neighbour cells < 0.01      : 0
    faces with face twist < 0.01                           : 1
    faces on cells with determinant < 0.001                : 0

Iteration 9
Moving mesh using displacement scaling : min:0  max:1
Checking faces in error :
    non-orthogonality > 65  degrees                        : 0
    faces with face pyramid volume < 1e-13                 : 0
    faces with face-decomposition tet quality < 1e-12      : 0
    faces with concavity > 80  degrees                     : 0
    faces with skewness > 4   (internal) or 4   (boundary) : 0
    faces with interpolation weights (0..1)  < 0.05        : 0
    faces with volume ratio of neighbour cells < 0.01      : 0
    faces with face twist < 0.01                           : 0
    faces on cells with determinant < 0.001                : 0
Successfully moved mesh
Moved mesh in = 0.645 s


Repatching faces according to nearest surface ...
Repatched 0 faces in = 0.023 s


Edge intersection testing:
    Number of edges             : 142511
    Number of edges to retest   : 53458
    Number of intersected edges : 11229
Merging 500 sets of faces.

Edge intersection testing:
    Number of edges             : 141802
    Number of edges to retest   : 2111
    Number of intersected edges : 10520

Undo iteration 0
----------------
Checking faces in error :
    non-orthogonality > 65  degrees                        : 0
    faces with face pyramid volume < 1e-13                 : 0
    faces with face-decomposition tet quality < 1e-12      : 0
    faces with concavity > 80  degrees                     : 0
    faces with skewness > 4   (internal) or 4   (boundary) : 0
    faces with interpolation weights (0..1)  < 0.05        : 0
    faces with volume ratio of neighbour cells < 0.01      : 0
    faces with face twist < 0.01                           : 0
    faces on cells with determinant < 0.001                : 0

Merging all points on surface that
- are used by only two boundary faces and
- make an angle with a cosine of more than 0.98480775.

Removing 176 straight edge points ...

Edge intersection testing:
    Number of edges             : 141802
    Number of edges to retest   : 1231
    Number of intersected edges : 10520

Undo iteration 0
----------------
Checking faces in error :
    non-orthogonality > 65  degrees                        : 0
    faces with face pyramid volume < 1e-13                 : 0
    faces with face-decomposition tet quality < 1e-12      : 0
    faces with concavity > 80  degrees                     : 0
    faces with skewness > 4   (internal) or 4   (boundary) : 0
    faces with interpolation weights (0..1)  < 0.05        : 0
    faces with volume ratio of neighbour cells < 0.01      : 0
    faces with face twist < 0.01                           : 0
    faces on cells with determinant < 0.001                : 0
Snapped mesh : cells:42083  faces:141802  points:58170
Cells per refinement level:
    0	290
    1	622
    2	1224
    3	2484
    4	9405
    5	28058
Writing mesh to time constant
Wrote mesh in = 1.226 s.
Mesh snapped in = 12.536 s.
Checking final mesh ...
Checking faces in error :
    non-orthogonality > 65  degrees                        : 0
    faces with face pyramid volume < 1e-13                 : 0
    faces with face-decomposition tet quality < 1e-12      : 0
    faces with concavity > 80  degrees                     : 0
    faces with skewness > 4   (internal) or 4   (boundary) : 0
    faces with interpolation weights (0..1)  < 0.05        : 0
    faces with volume ratio of neighbour cells < 0.01      : 0
    faces with face twist < 0.01                           : 0
    faces on cells with determinant < 0.001                : 0
Finished meshing without any errors
Finished meshing in = 17.101 s.
End

