/*---------------------------------------------------------------------------*\
  =========                 |
  \\      /  F ield         | OpenFOAM: The Open Source CFD Toolbox
   \\    /   O peration     | Website:  https://openfoam.org
    \\  /    A nd           | Version:  8
     \\/     M anipulation  |
\*---------------------------------------------------------------------------*/
/*   Windows 32 and 64 bit porting by blueCAPE: http://www.bluecape.com.pt   *\
|  Based on Windows porting (2.0.x v4) by Symscape: http://www.symscape.com   |
\*---------------------------------------------------------------------------*/
Build  : 8-53cd1468e263
Exec   : C:/PROGRA~1/BLUECF~1/OpenFOAM-8/platforms/mingw_w64GccDPInt32Opt/bin/extrudeMesh.exe
Date   : Nov 10 2025
Time   : 14:56:53
Host   : "CIPHER-6869"
PID    : 11552
I/O    : uncollated
Case   : C:/MetaFoam_Cases/terrain_test_03
nProcs : 1
SigFpe : Enabling floating point exception trapping (FOAM_SIGFPE).
fileModificationChecking : Monitoring run-time modified files using timeStampMaster (fileModificationSkew 10)
allowSystemOperations : Allowing user-supplied system call operations

// * * * * * * * * * * * * * * * * * * * * * * * * * * * * * * * * * * * * * //
Create time

Create mesh for time = 0

Selecting extrudeModel linearNormal
Extruding from surface using model linearNormal
Flipping normals before extruding
Not collapsing any edges after extrusion

Extruding surfaceMesh read from file "constant/triSurface/terrain.obj"

Flipping faces.

Extruding surface with :
    points     : 22576
    faces      : 44550
    normals[0] : (0 0 -1)

Mesh bounding box : (-55.299999 -57.5 -0.1) (79.699997 107.5 0)
        with span : (135 165 0.1)
Merge distance    : 0

Writing mesh to "constant/region0"

End

