/*---------------------------------------------------------------------------*\
  =========                 |
  \\      /  F ield         | OpenFOAM: The Open Source CFD Toolbox
   \\    /   O peration     | Website:  https://openfoam.org
    \\  /    A nd           | Version:  8
     \\/     M anipulation  |
\*---------------------------------------------------------------------------*/
/*   Windows 32 and 64 bit porting by blueCAPE: http://www.bluecape.com.pt   *\
|  Based on Windows porting (2.0.x v4) by Symscape: http://www.symscape.com   |
\*---------------------------------------------------------------------------*/
Build  : 8-53cd1468e263
Exec   : C:/PROGRA~1/BLUECF~1/OpenFOAM-8/platforms/mingw_w64GccDPInt32Opt/bin/topoSet.exe -region terrain
Date   : Nov 10 2025
Time   : 14:57:53
Host   : "CIPHER-6869"
PID    : 23504
I/O    : uncollated
Case   : C:/MetaFoam_Cases/terrain_test_03
nProcs : 1
SigFpe : Enabling floating point exception trapping (FOAM_SIGFPE).
fileModificationChecking : Monitoring run-time modified files using timeStampMaster (fileModificationSkew 10)
allowSystemOperations : Allowing user-supplied system call operations

// * * * * * * * * * * * * * * * * * * * * * * * * * * * * * * * * * * * * * //
Create time

Create polyMesh terrain for time = 0

Reading topoSetDict

Time = 0
    mesh not changed.
Created cellSet ground_layer1
    Applying source rotatedBoxToCell
    Adding cells with center within rotated box 
    cellSet ground_layer1 now size 891000
Read set cellSet ground_layer1 with size 891000
    Applying source cellToCell
    Removing all elements of cellSet addedCells_layer2 ...
    cellSet ground_layer1 now size 267300
Created cellZoneSet ground_layer1
    Applying source setToCellZone
    Adding all cells from cellSet ground_layer1 ...
    cellZoneSet ground_layer1 now size 267300
Created cellZoneSet ground_layer2
    Applying source setToCellZone
    Adding all cells from cellSet addedCells_layer2 ...
    cellZoneSet ground_layer2 now size 623700
End

