/*---------------------------------------------------------------------------*\
  =========                 |
  \\      /  F ield         | OpenFOAM: The Open Source CFD Toolbox
   \\    /   O peration     | Website:  https://openfoam.org
    \\  /    A nd           | Version:  8
     \\/     M anipulation  |
\*---------------------------------------------------------------------------*/
/*   Windows 32 and 64 bit porting by blueCAPE: http://www.bluecape.com.pt   *\
|  Based on Windows porting (2.0.x v4) by Symscape: http://www.symscape.com   |
\*---------------------------------------------------------------------------*/
Build  : 8-53cd1468e263
Exec   : C:/PROGRA~1/BLUECF~1/OpenFOAM-8/platforms/mingw_w64GccDPInt32Opt/bin/topoSet.exe -region air
Date   : Nov 10 2025
Time   : 14:58:00
Host   : "CIPHER-6869"
PID    : 38936
I/O    : uncollated
Case   : C:/MetaFoam_Cases/terrain_test_03
nProcs : 1
SigFpe : Enabling floating point exception trapping (FOAM_SIGFPE).
fileModificationChecking : Monitoring run-time modified files using timeStampMaster (fileModificationSkew 10)
allowSystemOperations : Allowing user-supplied system call operations

// * * * * * * * * * * * * * * * * * * * * * * * * * * * * * * * * * * * * * //
Create time

Create polyMesh air for time = 0

Reading topoSetDict

Time = 0
    mesh not changed.
Created cellSet vegetation
    Applying source surfaceToCell
    Adding cells in relation to surface "constant/triSurface/vegetation.stl" ...
    Marked inside/outside using surface intersection in = 0.408 s

    cellSet vegetation now size 4124
Created cellZoneSet vegetation
    Applying source setToCellZone
    Adding all cells from cellSet vegetation ...
    cellZoneSet vegetation now size 4124
End

