/*---------------------------------------------------------------------------*\
  =========                 |
  \\      /  F ield         | OpenFOAM: The Open Source CFD Toolbox
   \\    /   O peration     | Website:  https://openfoam.org
    \\  /    A nd           | Version:  8
     \\/     M anipulation  |
\*---------------------------------------------------------------------------*/
/*   Windows 32 and 64 bit porting by blueCAPE: http://www.bluecape.com.pt   *\
|  Based on Windows porting (2.0.x v4) by Symscape: http://www.symscape.com   |
\*---------------------------------------------------------------------------*/
Build  : 8-53cd1468e263
Exec   : C:/PROGRA~1/BLUECF~1/OpenFOAM-8/platforms/mingw_w64GccDPInt32Opt/bin/setFields.exe -region air
Date   : Nov 10 2025
Time   : 14:58:05
Host   : "CIPHER-6869"
PID    : 25828
I/O    : uncollated
Case   : C:/MetaFoam_Cases/terrain_test_03
nProcs : 1
SigFpe : Enabling floating point exception trapping (FOAM_SIGFPE).
fileModificationChecking : Monitoring run-time modified files using timeStampMaster (fileModificationSkew 10)
allowSystemOperations : Allowing user-supplied system call operations

// * * * * * * * * * * * * * * * * * * * * * * * * * * * * * * * * * * * * * //
Create time

Create mesh air for time = 0

Reading setFieldsDict

Setting field default values
    Setting internal values of volScalarField LAD

Setting field region values
    Adding all cells of cellZone vegetation ...
    Found matching zone vegetation with 4124 cells.
    Setting internal values of volScalarField LAD

End

