/*---------------------------------------------------------------------------*\
  =========                 |
  \\      /  F ield         | OpenFOAM: The Open Source CFD Toolbox
   \\    /   O peration     | Website:  https://openfoam.org
    \\  /    A nd           | Version:  8
     \\/     M anipulation  |
\*---------------------------------------------------------------------------*/
/*   Windows 32 and 64 bit porting by blueCAPE: http://www.bluecape.com.pt   *\
|  Based on Windows porting (2.0.x v4) by Symscape: http://www.symscape.com   |
\*---------------------------------------------------------------------------*/
Build  : 8-53cd1468e263
Exec   : C:/PROGRA~1/BLUECF~1/ofuser-of8/platforms/mingw_w64GccDPInt32Opt/bin/urbanMicroclimateFoam.exe
Date   : Nov 10 2025
Time   : 15:00:21
Host   : "CIPHER-6869"
PID    : 17520
I/O    : uncollated
Case   : C:/MetaFoam_Cases/terrain_test_03
nProcs : 1
SigFpe : Enabling floating point exception trapping (FOAM_SIGFPE).
fileModificationChecking : Monitoring run-time modified files using timeStampMaster (fileModificationSkew 10)
allowSystemOperations : Allowing user-supplied system call operations

// * * * * * * * * * * * * * * * * * * * * * * * * * * * * * * * * * * * * * //
Create time

Create fluid mesh for region air for time = 0

Create solid mesh for region buildings for time = 0

Create solid mesh for region terrain for time = 0

Create vegetation mesh for region vegetation for time = 0

*** Reading fluid mesh thermophysical properties for region air

    Adding to thermoFluid

Selecting thermodynamics package 
{
    type            heRhoThermo;
    mixture         pureMixture;
    transport       const;
    thermo          hConst;
    equationOfState Boussinesq;
    specie          specie;
    energy          sensibleEnthalpy;
}

    Adding to rhoFluid

Radiation model not active: radiationProperties not found
Selecting radiationModel none
solarLoad model not active: solarLoadProperties not found
Selecting solarLoadModel none
Selecting vegetationModel simplifiedVegetation
 Defined simplifiedVegetation model
Grass model not active: grassProperties not found
Selecting grassModel none
    Adding to UFluid

    Adding to wFluid

    Adding to gcrFluid

    Adding to phiFluid

    Adding to gFluid

    Adding to turbulence

Selecting turbulence model type RAS
Selecting RAS turbulence model realizableKE
RAS
{
    RASModel        realizableKE;
    turbulence      on;
    printCoeffs     on;
    A0              4;
    C2              1.9;
    sigmak          1;
    sigmaEps        1.2;
}

    Adding to thermophysical transport

Selecting thermophysical transport type RAS
Selecting default RAS thermophysical transport model eddyDiffusivity
    Adding to ghFluid

    Adding to ghfFluid

pressureControl
    pMax 120000
    pMin 80000

    Adding MRF

No MRF models present

    Adding fvOptions

Creating finite volume options from "system/fvOptions"

Selecting finite volume options model type limitTemperature
    Source: limitT
    - selecting all cells
    - selected 65737 cell(s) with volume 1333140
    Adding solidTransportProperties

    Adding to rho_mSolid

    Adding to cap_mSolid

    Adding to lambda_mSolid

    Adding to TsSolid

    Adding to wsSolid

    Adding to pcSolid

    Adding to KrelSolid

    Adding to K_vSolid

    Adding to K_ptSolid

    Adding to CrelSolid

    Adding to gSolid

    Adding solidTransportProperties

    Adding to rho_mSolid

    Adding to cap_mSolid

    Adding to lambda_mSolid

    Adding to TsSolid

    Adding to wsSolid

    Adding to pcSolid

    Adding to KrelSolid

    Adding to K_vSolid

    Adding to K_ptSolid

    Adding to CrelSolid

    Adding to gSolid

*** Reading fluid mesh thermophysical properties for region vegetation

    Adding to TVeg

Selecting radiationModel viewFactorSky
Selecting absorptionEmissionModel none
Selecting scatterModel none
Selecting solarLoadModel directAndDiffuse
Selecting solarLoadAbsorptionEmissionModel none
Selecting solarLoadScatterModel none
Selected patches:8(0 1 2 3 4 5 6 7)
Number of coarse faces:1639
wallPatchOrNot_: 8(0 0 0 0 1 0 1 1)
nLocalWallCoarseFaces_: 1562
Selected patches:8(0 1 2 3 4 5 6 7)
Number of coarse faces:1639
wallPatchOrNot_: 7(0 0 0 0 1 0 1)
nLocalWallCoarseFaces_: 1562
Total number of clusters : 1639
Total number of fine faces : 12902
Insert elements in the matrix...
Smoothing the matrix...

Time = 3600

Solving for fluid region air
blendingLayer dampingThickness: 60
blendingLayer alphaCoeffU: 0.3
blendingLayer alphaCoeffT: 0.1
Generating stack trace...


Backtrace:
	ZN10StackTraceC1Ev [0x626c1855+0x25]
		 module: C:\PROGRA~1\BLUECF~1\ThirdParty-8\platforms\mingw_w64GccDPInt32\lib\libstack_trace.dll
	ZN4Foam5error10printStackERNS_7OstreamE [0x6c30ae5a+0x23a]
		 module: C:\PROGRA~1\BLUECF~1\OpenFOAM-8\platforms\mingw_w64GccDPInt32Opt\lib\libOpenFOAM.dll
	ZN4Foam7sigSegv14sigSegvHandlerEi [0x6c30bb03+0x33]
		 module: C:\PROGRA~1\BLUECF~1\OpenFOAM-8\platforms\mingw_w64GccDPInt32Opt\lib\libOpenFOAM.dll
	(No symbol) [0x4087e2]
		 module: C:\PROGRA~1\BLUECF~1\ofuser-of8\platforms\mingw_w64GccDPInt32Opt\bin\urbanMicroclimateFoam.exe
	_C_specific_handler [0x7ff877abbdaf+0x9f]
		 module: C:\WINDOWS\System32\msvcrt.dll
	0_chkstk [0x7ff878d4632f+0x9f]
		 module: C:\WINDOWS\SYSTEM32\ntdll.dll
	RtlLocateExtendedFeature [0x7ff878bf2327+0x597]
		 module: C:\WINDOWS\SYSTEM32\ntdll.dll
	KiUserExceptionDispatcher [0x7ff878d45c6e+0x2e]
		 module: C:\WINDOWS\SYSTEM32\ntdll.dll
	ZN4Foam13blendingLayer10initializeEv [0x659c612b+0x48b]
		 module: C:\PROGRA~1\BLUECF~1\ofuser-of8\platforms\mingw_w64GccDPInt32Opt\lib\libblendingLayer.dll
	(No symbol) [0x4762a2]
		 module: C:\PROGRA~1\BLUECF~1\ofuser-of8\platforms\mingw_w64GccDPInt32Opt\bin\urbanMicroclimateFoam.exe
	(No symbol) [0x4013c1]
		 module: C:\PROGRA~1\BLUECF~1\ofuser-of8\platforms\mingw_w64GccDPInt32Opt\bin\urbanMicroclimateFoam.exe
	(No symbol) [0x4014f6]
		 module: C:\PROGRA~1\BLUECF~1\ofuser-of8\platforms\mingw_w64GccDPInt32Opt\bin\urbanMicroclimateFoam.exe
	BaseThreadInitThunk [0x7ff87774e8d7+0x17]
		 module: C:\WINDOWS\System32\KERNEL32.DLL
	RtlUserThreadStart [0x7ff878c6c53c+0x2c]
		 module: C:\WINDOWS\SYSTEM32\ntdll.dll
